
---------- Begin Simulation Statistics ----------
sim_seconds                                  1.108126                       # Number of seconds simulated
sim_ticks                                1108126350000                       # Number of ticks simulated
final_tick                               1108126350000                       # Number of ticks from beginning of simulation (restored from checkpoints and never reset)
sim_freq                                 1000000000000                       # Frequency of simulated ticks
host_inst_rate                                 695038                       # Simulator instruction rate (inst/s)
host_op_rate                                  1127096                       # Simulator op (including micro ops) rate (op/s)
host_tick_rate                             1527886080                       # Simulator tick rate (ticks/s)
host_mem_usage                                 671576                       # Number of bytes of host memory used
host_seconds                                   725.27                       # Real time elapsed on the host
sim_insts                                   504088774                       # Number of instructions simulated
sim_ops                                     817446129                       # Number of ops (including micro ops) simulated
system.voltage_domain.voltage                       1                       # Voltage in Volts
system.clk_domain.clock                          1000                       # Clock period in ticks
system.mem_ctrls.pwrStateResidencyTicks::UNDEFINED 1108126350000                       # Cumulative time (in ticks) in various power states
system.mem_ctrls.bytes_read::cpu.inst           22080                       # Number of bytes read from this memory
system.mem_ctrls.bytes_read::cpu.data        18361152                       # Number of bytes read from this memory
system.mem_ctrls.bytes_read::total           18383232                       # Number of bytes read from this memory
system.mem_ctrls.bytes_inst_read::cpu.inst        22080                       # Number of instructions bytes read from this memory
system.mem_ctrls.bytes_inst_read::total         22080                       # Number of instructions bytes read from this memory
system.mem_ctrls.bytes_written::writebacks     16906624                       # Number of bytes written to this memory
system.mem_ctrls.bytes_written::total        16906624                       # Number of bytes written to this memory
system.mem_ctrls.num_reads::cpu.inst              345                       # Number of read requests responded to by this memory
system.mem_ctrls.num_reads::cpu.data           286893                       # Number of read requests responded to by this memory
system.mem_ctrls.num_reads::total              287238                       # Number of read requests responded to by this memory
system.mem_ctrls.num_writes::writebacks        264166                       # Number of write requests responded to by this memory
system.mem_ctrls.num_writes::total             264166                       # Number of write requests responded to by this memory
system.mem_ctrls.bw_read::cpu.inst              19926                       # Total read bandwidth from this memory (bytes/s)
system.mem_ctrls.bw_read::cpu.data           16569547                       # Total read bandwidth from this memory (bytes/s)
system.mem_ctrls.bw_read::total              16589473                       # Total read bandwidth from this memory (bytes/s)
system.mem_ctrls.bw_inst_read::cpu.inst         19926                       # Instruction read bandwidth from this memory (bytes/s)
system.mem_ctrls.bw_inst_read::total            19926                       # Instruction read bandwidth from this memory (bytes/s)
system.mem_ctrls.bw_write::writebacks        15256946                       # Write bandwidth from this memory (bytes/s)
system.mem_ctrls.bw_write::total             15256946                       # Write bandwidth from this memory (bytes/s)
system.mem_ctrls.bw_total::writebacks        15256946                       # Total bandwidth to/from this memory (bytes/s)
system.mem_ctrls.bw_total::cpu.inst             19926                       # Total bandwidth to/from this memory (bytes/s)
system.mem_ctrls.bw_total::cpu.data          16569547                       # Total bandwidth to/from this memory (bytes/s)
system.mem_ctrls.bw_total::total             31846419                       # Total bandwidth to/from this memory (bytes/s)
system.pwrStateResidencyTicks::UNDEFINED 1108126350000                       # Cumulative time (in ticks) in various power states
system.cpu_voltage_domain.voltage                   1                       # Voltage in Volts
system.cpu_clk_domain.clock                       500                       # Clock period in ticks
system.cpu.dtb.walker.pwrStateResidencyTicks::UNDEFINED 1108126350000                       # Cumulative time (in ticks) in various power states
system.cpu.dtb.rdAccesses                   238245989                       # TLB accesses on read requests
system.cpu.dtb.wrAccesses                    64374667                       # TLB accesses on write requests
system.cpu.dtb.rdMisses                          5921                       # TLB misses on read requests
system.cpu.dtb.wrMisses                           999                       # TLB misses on write requests
system.cpu.apic_clk_domain.clock                 8000                       # Clock period in ticks
system.cpu.interrupts.pwrStateResidencyTicks::UNDEFINED 1108126350000                       # Cumulative time (in ticks) in various power states
system.cpu.itb.walker.pwrStateResidencyTicks::UNDEFINED 1108126350000                       # Cumulative time (in ticks) in various power states
system.cpu.itb.rdAccesses                           0                       # TLB accesses on read requests
system.cpu.itb.wrAccesses                   677335211                       # TLB accesses on write requests
system.cpu.itb.rdMisses                             0                       # TLB misses on read requests
system.cpu.itb.wrMisses                            35                       # TLB misses on write requests
system.cpu.workload.numSyscalls                     9                       # Number of system calls
system.cpu.pwrStateResidencyTicks::ON    1108126350000                       # Cumulative time (in ticks) in various power states
system.cpu.numCycles                       2216252700                       # number of cpu cycles simulated
system.cpu.numWorkItemsStarted                      0                       # number of work items this cpu started
system.cpu.numWorkItemsCompleted                    0                       # number of work items this cpu completed
system.cpu.committedInsts                   504088774                       # Number of instructions committed
system.cpu.committedOps                     817446129                       # Number of ops (including micro ops) committed
system.cpu.num_int_alu_accesses             812630010                       # Number of integer alu accesses
system.cpu.num_fp_alu_accesses                   1975                       # Number of float alu accesses
system.cpu.num_vec_alu_accesses                     0                       # Number of vector alu accesses
system.cpu.num_func_calls                     9452832                       # number of times a function call or return occured
system.cpu.num_conditional_control_insts     46565890                       # number of instructions that are conditional controls
system.cpu.num_int_insts                    812630010                       # number of integer instructions
system.cpu.num_fp_insts                          1975                       # number of float instructions
system.cpu.num_vec_insts                            0                       # number of vector instructions
system.cpu.num_int_register_reads          1822855649                       # number of times the integer registers were read
system.cpu.num_int_register_writes          705741308                       # number of times the integer registers were written
system.cpu.num_fp_register_reads                 3787                       # number of times the floating registers were read
system.cpu.num_fp_register_writes                1492                       # number of times the floating registers were written
system.cpu.num_vec_register_reads                   0                       # number of times the vector registers were read
system.cpu.num_vec_register_writes                  0                       # number of times the vector registers were written
system.cpu.num_cc_register_reads            297557775                       # number of times the CC registers were read
system.cpu.num_cc_register_writes           279904588                       # number of times the CC registers were written
system.cpu.num_mem_refs                     302620652                       # number of memory refs
system.cpu.num_load_insts                   238245986                       # Number of load instructions
system.cpu.num_store_insts                   64374666                       # Number of store instructions
system.cpu.num_idle_cycles                          0                       # Number of idle cycles
system.cpu.num_busy_cycles                 2216252700                       # Number of busy cycles
system.cpu.not_idle_fraction                        1                       # Percentage of non-idle cycles
system.cpu.idle_fraction                            0                       # Percentage of idle cycles
system.cpu.Branches                          60772146                       # Number of branches fetched
system.cpu.op_class::No_OpClass               1362109      0.17%      0.17% # Class of executed instruction
system.cpu.op_class::IntAlu                 505014358     61.78%     61.95% # Class of executed instruction
system.cpu.op_class::IntMult                        4      0.00%     61.95% # Class of executed instruction
system.cpu.op_class::IntDiv                   8448046      1.03%     62.98% # Class of executed instruction
system.cpu.op_class::FloatAdd                      10      0.00%     62.98% # Class of executed instruction
system.cpu.op_class::FloatCmp                       0      0.00%     62.98% # Class of executed instruction
system.cpu.op_class::FloatCvt                       0      0.00%     62.98% # Class of executed instruction
system.cpu.op_class::FloatMult                      0      0.00%     62.98% # Class of executed instruction
system.cpu.op_class::FloatMultAcc                   0      0.00%     62.98% # Class of executed instruction
system.cpu.op_class::FloatDiv                       0      0.00%     62.98% # Class of executed instruction
system.cpu.op_class::FloatMisc                      0      0.00%     62.98% # Class of executed instruction
system.cpu.op_class::FloatSqrt                      0      0.00%     62.98% # Class of executed instruction
system.cpu.op_class::SimdAdd                      374      0.00%     62.98% # Class of executed instruction
system.cpu.op_class::SimdAddAcc                     0      0.00%     62.98% # Class of executed instruction
system.cpu.op_class::SimdAlu                       68      0.00%     62.98% # Class of executed instruction
system.cpu.op_class::SimdCmp                        0      0.00%     62.98% # Class of executed instruction
system.cpu.op_class::SimdCvt                      108      0.00%     62.98% # Class of executed instruction
system.cpu.op_class::SimdMisc                     214      0.00%     62.98% # Class of executed instruction
system.cpu.op_class::SimdMult                       0      0.00%     62.98% # Class of executed instruction
system.cpu.op_class::SimdMultAcc                    0      0.00%     62.98% # Class of executed instruction
system.cpu.op_class::SimdShift                    186      0.00%     62.98% # Class of executed instruction
system.cpu.op_class::SimdShiftAcc                   0      0.00%     62.98% # Class of executed instruction
system.cpu.op_class::SimdSqrt                       0      0.00%     62.98% # Class of executed instruction
system.cpu.op_class::SimdFloatAdd                   0      0.00%     62.98% # Class of executed instruction
system.cpu.op_class::SimdFloatAlu                   0      0.00%     62.98% # Class of executed instruction
system.cpu.op_class::SimdFloatCmp                   0      0.00%     62.98% # Class of executed instruction
system.cpu.op_class::SimdFloatCvt                   0      0.00%     62.98% # Class of executed instruction
system.cpu.op_class::SimdFloatDiv                   0      0.00%     62.98% # Class of executed instruction
system.cpu.op_class::SimdFloatMisc                  0      0.00%     62.98% # Class of executed instruction
system.cpu.op_class::SimdFloatMult                  0      0.00%     62.98% # Class of executed instruction
system.cpu.op_class::SimdFloatMultAcc               0      0.00%     62.98% # Class of executed instruction
system.cpu.op_class::SimdFloatSqrt                  0      0.00%     62.98% # Class of executed instruction
system.cpu.op_class::MemRead                238245918     29.15%     92.12% # Class of executed instruction
system.cpu.op_class::MemWrite                64374231      7.88%    100.00% # Class of executed instruction
system.cpu.op_class::FloatMemRead                  68      0.00%    100.00% # Class of executed instruction
system.cpu.op_class::FloatMemWrite                435      0.00%    100.00% # Class of executed instruction
system.cpu.op_class::IprAccess                      0      0.00%    100.00% # Class of executed instruction
system.cpu.op_class::InstPrefetch                   0      0.00%    100.00% # Class of executed instruction
system.cpu.op_class::total                  817446129                       # Class of executed instruction
system.cpu.dcache.tags.pwrStateResidencyTicks::UNDEFINED 1108126350000                       # Cumulative time (in ticks) in various power states
system.cpu.dcache.tags.tagsinuse           511.824010                       # Cycle average of tags in use
system.cpu.dcache.tags.total_refs           302620656                       # Total number of references to valid blocks.
system.cpu.dcache.tags.sampled_refs            682447                       # Sample count of references to valid blocks.
system.cpu.dcache.tags.avg_refs            443.434664                       # Average number of references to valid blocks.
system.cpu.dcache.tags.warmup_cycle            765000                       # Cycle when the warmup percentage was hit.
system.cpu.dcache.tags.occ_blocks::cpu.data   511.824010                       # Average occupied blocks per requestor
system.cpu.dcache.tags.occ_percent::cpu.data     0.999656                       # Average percentage of cache occupancy
system.cpu.dcache.tags.occ_percent::total     0.999656                       # Average percentage of cache occupancy
system.cpu.dcache.tags.occ_task_id_blocks::1024          512                       # Occupied blocks per task id
system.cpu.dcache.tags.age_task_id_blocks_1024::0            9                       # Occupied blocks per task id
system.cpu.dcache.tags.age_task_id_blocks_1024::1           21                       # Occupied blocks per task id
system.cpu.dcache.tags.age_task_id_blocks_1024::2           54                       # Occupied blocks per task id
system.cpu.dcache.tags.age_task_id_blocks_1024::3          421                       # Occupied blocks per task id
system.cpu.dcache.tags.age_task_id_blocks_1024::4            7                       # Occupied blocks per task id
system.cpu.dcache.tags.occ_task_id_percent::1024            1                       # Percentage of cache occupancy per task id
system.cpu.dcache.tags.tag_accesses         605923759                       # Number of tag accesses
system.cpu.dcache.tags.data_accesses        605923759                       # Number of data accesses
system.cpu.dcache.pwrStateResidencyTicks::UNDEFINED 1108126350000                       # Cumulative time (in ticks) in various power states
system.cpu.dcache.ReadReq_hits::cpu.data    237630018                       # number of ReadReq hits
system.cpu.dcache.ReadReq_hits::total       237630018                       # number of ReadReq hits
system.cpu.dcache.WriteReq_hits::cpu.data     64095526                       # number of WriteReq hits
system.cpu.dcache.WriteReq_hits::total       64095526                       # number of WriteReq hits
system.cpu.dcache.demand_hits::cpu.data     301725544                       # number of demand (read+write) hits
system.cpu.dcache.demand_hits::total        301725544                       # number of demand (read+write) hits
system.cpu.dcache.overall_hits::cpu.data    301725544                       # number of overall hits
system.cpu.dcache.overall_hits::total       301725544                       # number of overall hits
system.cpu.dcache.ReadReq_misses::cpu.data       615971                       # number of ReadReq misses
system.cpu.dcache.ReadReq_misses::total        615971                       # number of ReadReq misses
system.cpu.dcache.WriteReq_misses::cpu.data       279141                       # number of WriteReq misses
system.cpu.dcache.WriteReq_misses::total       279141                       # number of WriteReq misses
system.cpu.dcache.demand_misses::cpu.data       895112                       # number of demand (read+write) misses
system.cpu.dcache.demand_misses::total         895112                       # number of demand (read+write) misses
system.cpu.dcache.overall_misses::cpu.data       895112                       # number of overall misses
system.cpu.dcache.overall_misses::total        895112                       # number of overall misses
system.cpu.dcache.ReadReq_miss_latency::cpu.data 105949368000                       # number of ReadReq miss cycles
system.cpu.dcache.ReadReq_miss_latency::total 105949368000                       # number of ReadReq miss cycles
system.cpu.dcache.WriteReq_miss_latency::cpu.data  23057596000                       # number of WriteReq miss cycles
system.cpu.dcache.WriteReq_miss_latency::total  23057596000                       # number of WriteReq miss cycles
system.cpu.dcache.demand_miss_latency::cpu.data 129006964000                       # number of demand (read+write) miss cycles
system.cpu.dcache.demand_miss_latency::total 129006964000                       # number of demand (read+write) miss cycles
system.cpu.dcache.overall_miss_latency::cpu.data 129006964000                       # number of overall miss cycles
system.cpu.dcache.overall_miss_latency::total 129006964000                       # number of overall miss cycles
system.cpu.dcache.ReadReq_accesses::cpu.data    238245989                       # number of ReadReq accesses(hits+misses)
system.cpu.dcache.ReadReq_accesses::total    238245989                       # number of ReadReq accesses(hits+misses)
system.cpu.dcache.WriteReq_accesses::cpu.data     64374667                       # number of WriteReq accesses(hits+misses)
system.cpu.dcache.WriteReq_accesses::total     64374667                       # number of WriteReq accesses(hits+misses)
system.cpu.dcache.demand_accesses::cpu.data    302620656                       # number of demand (read+write) accesses
system.cpu.dcache.demand_accesses::total    302620656                       # number of demand (read+write) accesses
system.cpu.dcache.overall_accesses::cpu.data    302620656                       # number of overall (read+write) accesses
system.cpu.dcache.overall_accesses::total    302620656                       # number of overall (read+write) accesses
system.cpu.dcache.ReadReq_miss_rate::cpu.data     0.002585                       # miss rate for ReadReq accesses
system.cpu.dcache.ReadReq_miss_rate::total     0.002585                       # miss rate for ReadReq accesses
system.cpu.dcache.WriteReq_miss_rate::cpu.data     0.004336                       # miss rate for WriteReq accesses
system.cpu.dcache.WriteReq_miss_rate::total     0.004336                       # miss rate for WriteReq accesses
system.cpu.dcache.demand_miss_rate::cpu.data     0.002958                       # miss rate for demand accesses
system.cpu.dcache.demand_miss_rate::total     0.002958                       # miss rate for demand accesses
system.cpu.dcache.overall_miss_rate::cpu.data     0.002958                       # miss rate for overall accesses
system.cpu.dcache.overall_miss_rate::total     0.002958                       # miss rate for overall accesses
system.cpu.dcache.ReadReq_avg_miss_latency::cpu.data 172003.824855                       # average ReadReq miss latency
system.cpu.dcache.ReadReq_avg_miss_latency::total 172003.824855                       # average ReadReq miss latency
system.cpu.dcache.WriteReq_avg_miss_latency::cpu.data 82601.968181                       # average WriteReq miss latency
system.cpu.dcache.WriteReq_avg_miss_latency::total 82601.968181                       # average WriteReq miss latency
system.cpu.dcache.demand_avg_miss_latency::cpu.data 144123.823611                       # average overall miss latency
system.cpu.dcache.demand_avg_miss_latency::total 144123.823611                       # average overall miss latency
system.cpu.dcache.overall_avg_miss_latency::cpu.data 144123.823611                       # average overall miss latency
system.cpu.dcache.overall_avg_miss_latency::total 144123.823611                       # average overall miss latency
system.cpu.dcache.blocked_cycles::no_mshrs            0                       # number of cycles access was blocked
system.cpu.dcache.blocked_cycles::no_targets            0                       # number of cycles access was blocked
system.cpu.dcache.blocked::no_mshrs                 0                       # number of cycles access was blocked
system.cpu.dcache.blocked::no_targets               0                       # number of cycles access was blocked
system.cpu.dcache.avg_blocked_cycles::no_mshrs          nan                       # average number of cycles each access was blocked
system.cpu.dcache.avg_blocked_cycles::no_targets          nan                       # average number of cycles each access was blocked
system.cpu.dcache.writebacks::writebacks       657326                       # number of writebacks
system.cpu.dcache.writebacks::total            657326                       # number of writebacks
system.cpu.dcache.ReadReq_mshr_misses::cpu.data       615971                       # number of ReadReq MSHR misses
system.cpu.dcache.ReadReq_mshr_misses::total       615971                       # number of ReadReq MSHR misses
system.cpu.dcache.WriteReq_mshr_misses::cpu.data       279141                       # number of WriteReq MSHR misses
system.cpu.dcache.WriteReq_mshr_misses::total       279141                       # number of WriteReq MSHR misses
system.cpu.dcache.demand_mshr_misses::cpu.data       895112                       # number of demand (read+write) MSHR misses
system.cpu.dcache.demand_mshr_misses::total       895112                       # number of demand (read+write) MSHR misses
system.cpu.dcache.overall_mshr_misses::cpu.data       895112                       # number of overall MSHR misses
system.cpu.dcache.overall_mshr_misses::total       895112                       # number of overall MSHR misses
system.cpu.dcache.ReadReq_mshr_miss_latency::cpu.data 105333397000                       # number of ReadReq MSHR miss cycles
system.cpu.dcache.ReadReq_mshr_miss_latency::total 105333397000                       # number of ReadReq MSHR miss cycles
system.cpu.dcache.WriteReq_mshr_miss_latency::cpu.data  22778455000                       # number of WriteReq MSHR miss cycles
system.cpu.dcache.WriteReq_mshr_miss_latency::total  22778455000                       # number of WriteReq MSHR miss cycles
system.cpu.dcache.demand_mshr_miss_latency::cpu.data 128111852000                       # number of demand (read+write) MSHR miss cycles
system.cpu.dcache.demand_mshr_miss_latency::total 128111852000                       # number of demand (read+write) MSHR miss cycles
system.cpu.dcache.overall_mshr_miss_latency::cpu.data 128111852000                       # number of overall MSHR miss cycles
system.cpu.dcache.overall_mshr_miss_latency::total 128111852000                       # number of overall MSHR miss cycles
system.cpu.dcache.ReadReq_mshr_miss_rate::cpu.data     0.002585                       # mshr miss rate for ReadReq accesses
system.cpu.dcache.ReadReq_mshr_miss_rate::total     0.002585                       # mshr miss rate for ReadReq accesses
system.cpu.dcache.WriteReq_mshr_miss_rate::cpu.data     0.004336                       # mshr miss rate for WriteReq accesses
system.cpu.dcache.WriteReq_mshr_miss_rate::total     0.004336                       # mshr miss rate for WriteReq accesses
system.cpu.dcache.demand_mshr_miss_rate::cpu.data     0.002958                       # mshr miss rate for demand accesses
system.cpu.dcache.demand_mshr_miss_rate::total     0.002958                       # mshr miss rate for demand accesses
system.cpu.dcache.overall_mshr_miss_rate::cpu.data     0.002958                       # mshr miss rate for overall accesses
system.cpu.dcache.overall_mshr_miss_rate::total     0.002958                       # mshr miss rate for overall accesses
system.cpu.dcache.ReadReq_avg_mshr_miss_latency::cpu.data 171003.824855                       # average ReadReq mshr miss latency
system.cpu.dcache.ReadReq_avg_mshr_miss_latency::total 171003.824855                       # average ReadReq mshr miss latency
system.cpu.dcache.WriteReq_avg_mshr_miss_latency::cpu.data 81601.968181                       # average WriteReq mshr miss latency
system.cpu.dcache.WriteReq_avg_mshr_miss_latency::total 81601.968181                       # average WriteReq mshr miss latency
system.cpu.dcache.demand_avg_mshr_miss_latency::cpu.data 143123.823611                       # average overall mshr miss latency
system.cpu.dcache.demand_avg_mshr_miss_latency::total 143123.823611                       # average overall mshr miss latency
system.cpu.dcache.overall_avg_mshr_miss_latency::cpu.data 143123.823611                       # average overall mshr miss latency
system.cpu.dcache.overall_avg_mshr_miss_latency::total 143123.823611                       # average overall mshr miss latency
system.cpu.dcache.replacements                 681935                       # number of replacements
system.cpu.dtb_walker_cache.tags.pwrStateResidencyTicks::UNDEFINED 1108126350000                       # Cumulative time (in ticks) in various power states
system.cpu.dtb_walker_cache.tags.tagsinuse            0                       # Cycle average of tags in use
system.cpu.dtb_walker_cache.tags.total_refs            0                       # Total number of references to valid blocks.
system.cpu.dtb_walker_cache.tags.sampled_refs            0                       # Sample count of references to valid blocks.
system.cpu.dtb_walker_cache.tags.avg_refs          nan                       # Average number of references to valid blocks.
system.cpu.dtb_walker_cache.tags.warmup_cycle            0                       # Cycle when the warmup percentage was hit.
system.cpu.dtb_walker_cache.tags.tag_accesses            0                       # Number of tag accesses
system.cpu.dtb_walker_cache.tags.data_accesses            0                       # Number of data accesses
system.cpu.dtb_walker_cache.pwrStateResidencyTicks::UNDEFINED 1108126350000                       # Cumulative time (in ticks) in various power states
system.cpu.dtb_walker_cache.blocked_cycles::no_mshrs            0                       # number of cycles access was blocked
system.cpu.dtb_walker_cache.blocked_cycles::no_targets            0                       # number of cycles access was blocked
system.cpu.dtb_walker_cache.blocked::no_mshrs            0                       # number of cycles access was blocked
system.cpu.dtb_walker_cache.blocked::no_targets            0                       # number of cycles access was blocked
system.cpu.dtb_walker_cache.avg_blocked_cycles::no_mshrs          nan                       # average number of cycles each access was blocked
system.cpu.dtb_walker_cache.avg_blocked_cycles::no_targets          nan                       # average number of cycles each access was blocked
system.cpu.dtb_walker_cache.replacements            0                       # number of replacements
system.cpu.icache.tags.pwrStateResidencyTicks::UNDEFINED 1108126350000                       # Cumulative time (in ticks) in various power states
system.cpu.icache.tags.tagsinuse           272.732586                       # Cycle average of tags in use
system.cpu.icache.tags.total_refs           677335211                       # Total number of references to valid blocks.
system.cpu.icache.tags.sampled_refs               345                       # Sample count of references to valid blocks.
system.cpu.icache.tags.avg_refs          1963290.466667                       # Average number of references to valid blocks.
system.cpu.icache.tags.warmup_cycle            445000                       # Cycle when the warmup percentage was hit.
system.cpu.icache.tags.occ_blocks::cpu.inst   272.732586                       # Average occupied blocks per requestor
system.cpu.icache.tags.occ_percent::cpu.inst     0.532681                       # Average percentage of cache occupancy
system.cpu.icache.tags.occ_percent::total     0.532681                       # Average percentage of cache occupancy
system.cpu.icache.tags.occ_task_id_blocks::1024          297                       # Occupied blocks per task id
system.cpu.icache.tags.age_task_id_blocks_1024::0           10                       # Occupied blocks per task id
system.cpu.icache.tags.age_task_id_blocks_1024::1           24                       # Occupied blocks per task id
system.cpu.icache.tags.age_task_id_blocks_1024::4          263                       # Occupied blocks per task id
system.cpu.icache.tags.occ_task_id_percent::1024     0.580078                       # Percentage of cache occupancy per task id
system.cpu.icache.tags.tag_accesses        1354670767                       # Number of tag accesses
system.cpu.icache.tags.data_accesses       1354670767                       # Number of data accesses
system.cpu.icache.pwrStateResidencyTicks::UNDEFINED 1108126350000                       # Cumulative time (in ticks) in various power states
system.cpu.icache.ReadReq_hits::cpu.inst    677334866                       # number of ReadReq hits
system.cpu.icache.ReadReq_hits::total       677334866                       # number of ReadReq hits
system.cpu.icache.demand_hits::cpu.inst     677334866                       # number of demand (read+write) hits
system.cpu.icache.demand_hits::total        677334866                       # number of demand (read+write) hits
system.cpu.icache.overall_hits::cpu.inst    677334866                       # number of overall hits
system.cpu.icache.overall_hits::total       677334866                       # number of overall hits
system.cpu.icache.ReadReq_misses::cpu.inst          345                       # number of ReadReq misses
system.cpu.icache.ReadReq_misses::total           345                       # number of ReadReq misses
system.cpu.icache.demand_misses::cpu.inst          345                       # number of demand (read+write) misses
system.cpu.icache.demand_misses::total            345                       # number of demand (read+write) misses
system.cpu.icache.overall_misses::cpu.inst          345                       # number of overall misses
system.cpu.icache.overall_misses::total           345                       # number of overall misses
system.cpu.icache.ReadReq_miss_latency::cpu.inst     58980000                       # number of ReadReq miss cycles
system.cpu.icache.ReadReq_miss_latency::total     58980000                       # number of ReadReq miss cycles
system.cpu.icache.demand_miss_latency::cpu.inst     58980000                       # number of demand (read+write) miss cycles
system.cpu.icache.demand_miss_latency::total     58980000                       # number of demand (read+write) miss cycles
system.cpu.icache.overall_miss_latency::cpu.inst     58980000                       # number of overall miss cycles
system.cpu.icache.overall_miss_latency::total     58980000                       # number of overall miss cycles
system.cpu.icache.ReadReq_accesses::cpu.inst    677335211                       # number of ReadReq accesses(hits+misses)
system.cpu.icache.ReadReq_accesses::total    677335211                       # number of ReadReq accesses(hits+misses)
system.cpu.icache.demand_accesses::cpu.inst    677335211                       # number of demand (read+write) accesses
system.cpu.icache.demand_accesses::total    677335211                       # number of demand (read+write) accesses
system.cpu.icache.overall_accesses::cpu.inst    677335211                       # number of overall (read+write) accesses
system.cpu.icache.overall_accesses::total    677335211                       # number of overall (read+write) accesses
system.cpu.icache.ReadReq_miss_rate::cpu.inst     0.000001                       # miss rate for ReadReq accesses
system.cpu.icache.ReadReq_miss_rate::total     0.000001                       # miss rate for ReadReq accesses
system.cpu.icache.demand_miss_rate::cpu.inst     0.000001                       # miss rate for demand accesses
system.cpu.icache.demand_miss_rate::total     0.000001                       # miss rate for demand accesses
system.cpu.icache.overall_miss_rate::cpu.inst     0.000001                       # miss rate for overall accesses
system.cpu.icache.overall_miss_rate::total     0.000001                       # miss rate for overall accesses
system.cpu.icache.ReadReq_avg_miss_latency::cpu.inst 170956.521739                       # average ReadReq miss latency
system.cpu.icache.ReadReq_avg_miss_latency::total 170956.521739                       # average ReadReq miss latency
system.cpu.icache.demand_avg_miss_latency::cpu.inst 170956.521739                       # average overall miss latency
system.cpu.icache.demand_avg_miss_latency::total 170956.521739                       # average overall miss latency
system.cpu.icache.overall_avg_miss_latency::cpu.inst 170956.521739                       # average overall miss latency
system.cpu.icache.overall_avg_miss_latency::total 170956.521739                       # average overall miss latency
system.cpu.icache.blocked_cycles::no_mshrs            0                       # number of cycles access was blocked
system.cpu.icache.blocked_cycles::no_targets            0                       # number of cycles access was blocked
system.cpu.icache.blocked::no_mshrs                 0                       # number of cycles access was blocked
system.cpu.icache.blocked::no_targets               0                       # number of cycles access was blocked
system.cpu.icache.avg_blocked_cycles::no_mshrs          nan                       # average number of cycles each access was blocked
system.cpu.icache.avg_blocked_cycles::no_targets          nan                       # average number of cycles each access was blocked
system.cpu.icache.writebacks::writebacks           48                       # number of writebacks
system.cpu.icache.writebacks::total                48                       # number of writebacks
system.cpu.icache.ReadReq_mshr_misses::cpu.inst          345                       # number of ReadReq MSHR misses
system.cpu.icache.ReadReq_mshr_misses::total          345                       # number of ReadReq MSHR misses
system.cpu.icache.demand_mshr_misses::cpu.inst          345                       # number of demand (read+write) MSHR misses
system.cpu.icache.demand_mshr_misses::total          345                       # number of demand (read+write) MSHR misses
system.cpu.icache.overall_mshr_misses::cpu.inst          345                       # number of overall MSHR misses
system.cpu.icache.overall_mshr_misses::total          345                       # number of overall MSHR misses
system.cpu.icache.ReadReq_mshr_miss_latency::cpu.inst     58635000                       # number of ReadReq MSHR miss cycles
system.cpu.icache.ReadReq_mshr_miss_latency::total     58635000                       # number of ReadReq MSHR miss cycles
system.cpu.icache.demand_mshr_miss_latency::cpu.inst     58635000                       # number of demand (read+write) MSHR miss cycles
system.cpu.icache.demand_mshr_miss_latency::total     58635000                       # number of demand (read+write) MSHR miss cycles
system.cpu.icache.overall_mshr_miss_latency::cpu.inst     58635000                       # number of overall MSHR miss cycles
system.cpu.icache.overall_mshr_miss_latency::total     58635000                       # number of overall MSHR miss cycles
system.cpu.icache.ReadReq_mshr_miss_rate::cpu.inst     0.000001                       # mshr miss rate for ReadReq accesses
system.cpu.icache.ReadReq_mshr_miss_rate::total     0.000001                       # mshr miss rate for ReadReq accesses
system.cpu.icache.demand_mshr_miss_rate::cpu.inst     0.000001                       # mshr miss rate for demand accesses
system.cpu.icache.demand_mshr_miss_rate::total     0.000001                       # mshr miss rate for demand accesses
system.cpu.icache.overall_mshr_miss_rate::cpu.inst     0.000001                       # mshr miss rate for overall accesses
system.cpu.icache.overall_mshr_miss_rate::total     0.000001                       # mshr miss rate for overall accesses
system.cpu.icache.ReadReq_avg_mshr_miss_latency::cpu.inst 169956.521739                       # average ReadReq mshr miss latency
system.cpu.icache.ReadReq_avg_mshr_miss_latency::total 169956.521739                       # average ReadReq mshr miss latency
system.cpu.icache.demand_avg_mshr_miss_latency::cpu.inst 169956.521739                       # average overall mshr miss latency
system.cpu.icache.demand_avg_mshr_miss_latency::total 169956.521739                       # average overall mshr miss latency
system.cpu.icache.overall_avg_mshr_miss_latency::cpu.inst 169956.521739                       # average overall mshr miss latency
system.cpu.icache.overall_avg_mshr_miss_latency::total 169956.521739                       # average overall mshr miss latency
system.cpu.icache.replacements                     48                       # number of replacements
system.cpu.itb_walker_cache.tags.pwrStateResidencyTicks::UNDEFINED 1108126350000                       # Cumulative time (in ticks) in various power states
system.cpu.itb_walker_cache.tags.tagsinuse            0                       # Cycle average of tags in use
system.cpu.itb_walker_cache.tags.total_refs            0                       # Total number of references to valid blocks.
system.cpu.itb_walker_cache.tags.sampled_refs            0                       # Sample count of references to valid blocks.
system.cpu.itb_walker_cache.tags.avg_refs          nan                       # Average number of references to valid blocks.
system.cpu.itb_walker_cache.tags.warmup_cycle            0                       # Cycle when the warmup percentage was hit.
system.cpu.itb_walker_cache.tags.tag_accesses            0                       # Number of tag accesses
system.cpu.itb_walker_cache.tags.data_accesses            0                       # Number of data accesses
system.cpu.itb_walker_cache.pwrStateResidencyTicks::UNDEFINED 1108126350000                       # Cumulative time (in ticks) in various power states
system.cpu.itb_walker_cache.blocked_cycles::no_mshrs            0                       # number of cycles access was blocked
system.cpu.itb_walker_cache.blocked_cycles::no_targets            0                       # number of cycles access was blocked
system.cpu.itb_walker_cache.blocked::no_mshrs            0                       # number of cycles access was blocked
system.cpu.itb_walker_cache.blocked::no_targets            0                       # number of cycles access was blocked
system.cpu.itb_walker_cache.avg_blocked_cycles::no_mshrs          nan                       # average number of cycles each access was blocked
system.cpu.itb_walker_cache.avg_blocked_cycles::no_targets          nan                       # average number of cycles each access was blocked
system.cpu.itb_walker_cache.replacements            0                       # number of replacements
system.l2.tags.pwrStateResidencyTicks::UNDEFINED 1108126350000                       # Cumulative time (in ticks) in various power states
system.l2.tags.tagsinuse                  2045.591387                       # Cycle average of tags in use
system.l2.tags.total_refs                     1577440                       # Total number of references to valid blocks.
system.l2.tags.sampled_refs                    518827                       # Sample count of references to valid blocks.
system.l2.tags.avg_refs                      3.040397                       # Average number of references to valid blocks.
system.l2.tags.warmup_cycle                    434500                       # Cycle when the warmup percentage was hit.
system.l2.tags.occ_blocks::writebacks        1.008683                       # Average occupied blocks per requestor
system.l2.tags.occ_blocks::cpu.inst          0.913285                       # Average occupied blocks per requestor
system.l2.tags.occ_blocks::cpu.data       2043.669418                       # Average occupied blocks per requestor
system.l2.tags.occ_percent::writebacks       0.000493                       # Average percentage of cache occupancy
system.l2.tags.occ_percent::cpu.inst         0.000446                       # Average percentage of cache occupancy
system.l2.tags.occ_percent::cpu.data         0.997885                       # Average percentage of cache occupancy
system.l2.tags.occ_percent::total            0.998824                       # Average percentage of cache occupancy
system.l2.tags.occ_task_id_blocks::1024          2048                       # Occupied blocks per task id
system.l2.tags.age_task_id_blocks_1024::0           24                       # Occupied blocks per task id
system.l2.tags.age_task_id_blocks_1024::1           49                       # Occupied blocks per task id
system.l2.tags.age_task_id_blocks_1024::3          450                       # Occupied blocks per task id
system.l2.tags.age_task_id_blocks_1024::4         1525                       # Occupied blocks per task id
system.l2.tags.occ_task_id_percent::1024            1                       # Percentage of cache occupancy per task id
system.l2.tags.tag_accesses                  13138347                       # Number of tag accesses
system.l2.tags.data_accesses                 13138347                       # Number of data accesses
system.l2.pwrStateResidencyTicks::UNDEFINED 1108126350000                       # Cumulative time (in ticks) in various power states
system.l2.WritebackDirty_hits::writebacks       657326                       # number of WritebackDirty hits
system.l2.WritebackDirty_hits::total           657326                       # number of WritebackDirty hits
system.l2.WritebackClean_hits::writebacks           48                       # number of WritebackClean hits
system.l2.WritebackClean_hits::total               48                       # number of WritebackClean hits
system.l2.UpgradeReq_hits::cpu.data            212665                       # number of UpgradeReq hits
system.l2.UpgradeReq_hits::total               212665                       # number of UpgradeReq hits
system.l2.ReadExReq_hits::cpu.data               3040                       # number of ReadExReq hits
system.l2.ReadExReq_hits::total                  3040                       # number of ReadExReq hits
system.l2.ReadSharedReq_hits::cpu.data         161027                       # number of ReadSharedReq hits
system.l2.ReadSharedReq_hits::total            161027                       # number of ReadSharedReq hits
system.l2.demand_hits::cpu.data                164067                       # number of demand (read+write) hits
system.l2.demand_hits::total                   164067                       # number of demand (read+write) hits
system.l2.overall_hits::cpu.data               164067                       # number of overall hits
system.l2.overall_hits::total                  164067                       # number of overall hits
system.l2.ReadExReq_misses::cpu.data            63436                       # number of ReadExReq misses
system.l2.ReadExReq_misses::total               63436                       # number of ReadExReq misses
system.l2.ReadCleanReq_misses::cpu.inst           345                       # number of ReadCleanReq misses
system.l2.ReadCleanReq_misses::total              345                       # number of ReadCleanReq misses
system.l2.ReadSharedReq_misses::cpu.data       454944                       # number of ReadSharedReq misses
system.l2.ReadSharedReq_misses::total          454944                       # number of ReadSharedReq misses
system.l2.demand_misses::cpu.inst                 345                       # number of demand (read+write) misses
system.l2.demand_misses::cpu.data              518380                       # number of demand (read+write) misses
system.l2.demand_misses::total                 518725                       # number of demand (read+write) misses
system.l2.overall_misses::cpu.inst                345                       # number of overall misses
system.l2.overall_misses::cpu.data             518380                       # number of overall misses
system.l2.overall_misses::total                518725                       # number of overall misses
system.l2.ReadExReq_miss_latency::cpu.data  20094840500                       # number of ReadExReq miss cycles
system.l2.ReadExReq_miss_latency::total   20094840500                       # number of ReadExReq miss cycles
system.l2.ReadCleanReq_miss_latency::cpu.inst     58117000                       # number of ReadCleanReq miss cycles
system.l2.ReadCleanReq_miss_latency::total     58117000                       # number of ReadCleanReq miss cycles
system.l2.ReadSharedReq_miss_latency::cpu.data 102718655500                       # number of ReadSharedReq miss cycles
system.l2.ReadSharedReq_miss_latency::total 102718655500                       # number of ReadSharedReq miss cycles
system.l2.demand_miss_latency::cpu.inst      58117000                       # number of demand (read+write) miss cycles
system.l2.demand_miss_latency::cpu.data  122813496000                       # number of demand (read+write) miss cycles
system.l2.demand_miss_latency::total     122871613000                       # number of demand (read+write) miss cycles
system.l2.overall_miss_latency::cpu.inst     58117000                       # number of overall miss cycles
system.l2.overall_miss_latency::cpu.data 122813496000                       # number of overall miss cycles
system.l2.overall_miss_latency::total    122871613000                       # number of overall miss cycles
system.l2.WritebackDirty_accesses::writebacks       657326                       # number of WritebackDirty accesses(hits+misses)
system.l2.WritebackDirty_accesses::total       657326                       # number of WritebackDirty accesses(hits+misses)
system.l2.WritebackClean_accesses::writebacks           48                       # number of WritebackClean accesses(hits+misses)
system.l2.WritebackClean_accesses::total           48                       # number of WritebackClean accesses(hits+misses)
system.l2.UpgradeReq_accesses::cpu.data        212665                       # number of UpgradeReq accesses(hits+misses)
system.l2.UpgradeReq_accesses::total           212665                       # number of UpgradeReq accesses(hits+misses)
system.l2.ReadExReq_accesses::cpu.data          66476                       # number of ReadExReq accesses(hits+misses)
system.l2.ReadExReq_accesses::total             66476                       # number of ReadExReq accesses(hits+misses)
system.l2.ReadCleanReq_accesses::cpu.inst          345                       # number of ReadCleanReq accesses(hits+misses)
system.l2.ReadCleanReq_accesses::total            345                       # number of ReadCleanReq accesses(hits+misses)
system.l2.ReadSharedReq_accesses::cpu.data       615971                       # number of ReadSharedReq accesses(hits+misses)
system.l2.ReadSharedReq_accesses::total        615971                       # number of ReadSharedReq accesses(hits+misses)
system.l2.demand_accesses::cpu.inst               345                       # number of demand (read+write) accesses
system.l2.demand_accesses::cpu.data            682447                       # number of demand (read+write) accesses
system.l2.demand_accesses::total               682792                       # number of demand (read+write) accesses
system.l2.overall_accesses::cpu.inst              345                       # number of overall (read+write) accesses
system.l2.overall_accesses::cpu.data           682447                       # number of overall (read+write) accesses
system.l2.overall_accesses::total              682792                       # number of overall (read+write) accesses
system.l2.ReadExReq_miss_rate::cpu.data      0.954269                       # miss rate for ReadExReq accesses
system.l2.ReadExReq_miss_rate::total         0.954269                       # miss rate for ReadExReq accesses
system.l2.ReadCleanReq_miss_rate::cpu.inst            1                       # miss rate for ReadCleanReq accesses
system.l2.ReadCleanReq_miss_rate::total             1                       # miss rate for ReadCleanReq accesses
system.l2.ReadSharedReq_miss_rate::cpu.data     0.738580                       # miss rate for ReadSharedReq accesses
system.l2.ReadSharedReq_miss_rate::total     0.738580                       # miss rate for ReadSharedReq accesses
system.l2.demand_miss_rate::cpu.inst                1                       # miss rate for demand accesses
system.l2.demand_miss_rate::cpu.data         0.759590                       # miss rate for demand accesses
system.l2.demand_miss_rate::total            0.759712                       # miss rate for demand accesses
system.l2.overall_miss_rate::cpu.inst               1                       # miss rate for overall accesses
system.l2.overall_miss_rate::cpu.data        0.759590                       # miss rate for overall accesses
system.l2.overall_miss_rate::total           0.759712                       # miss rate for overall accesses
system.l2.ReadExReq_avg_miss_latency::cpu.data 316773.448830                       # average ReadExReq miss latency
system.l2.ReadExReq_avg_miss_latency::total 316773.448830                       # average ReadExReq miss latency
system.l2.ReadCleanReq_avg_miss_latency::cpu.inst 168455.072464                       # average ReadCleanReq miss latency
system.l2.ReadCleanReq_avg_miss_latency::total 168455.072464                       # average ReadCleanReq miss latency
system.l2.ReadSharedReq_avg_miss_latency::cpu.data 225783.075499                       # average ReadSharedReq miss latency
system.l2.ReadSharedReq_avg_miss_latency::total 225783.075499                       # average ReadSharedReq miss latency
system.l2.demand_avg_miss_latency::cpu.inst 168455.072464                       # average overall miss latency
system.l2.demand_avg_miss_latency::cpu.data 236917.890351                       # average overall miss latency
system.l2.demand_avg_miss_latency::total 236872.356258                       # average overall miss latency
system.l2.overall_avg_miss_latency::cpu.inst 168455.072464                       # average overall miss latency
system.l2.overall_avg_miss_latency::cpu.data 236917.890351                       # average overall miss latency
system.l2.overall_avg_miss_latency::total 236872.356258                       # average overall miss latency
system.l2.blocked_cycles::no_mshrs                  0                       # number of cycles access was blocked
system.l2.blocked_cycles::no_targets                0                       # number of cycles access was blocked
system.l2.blocked::no_mshrs                         0                       # number of cycles access was blocked
system.l2.blocked::no_targets                       0                       # number of cycles access was blocked
system.l2.avg_blocked_cycles::no_mshrs            nan                       # average number of cycles each access was blocked
system.l2.avg_blocked_cycles::no_targets          nan                       # average number of cycles each access was blocked
system.l2.writebacks::writebacks               508228                       # number of writebacks
system.l2.writebacks::total                    508228                       # number of writebacks
system.l2.ReadExReq_mshr_misses::cpu.data        63436                       # number of ReadExReq MSHR misses
system.l2.ReadExReq_mshr_misses::total          63436                       # number of ReadExReq MSHR misses
system.l2.ReadCleanReq_mshr_misses::cpu.inst          345                       # number of ReadCleanReq MSHR misses
system.l2.ReadCleanReq_mshr_misses::total          345                       # number of ReadCleanReq MSHR misses
system.l2.ReadSharedReq_mshr_misses::cpu.data       454944                       # number of ReadSharedReq MSHR misses
system.l2.ReadSharedReq_mshr_misses::total       454944                       # number of ReadSharedReq MSHR misses
system.l2.demand_mshr_misses::cpu.inst            345                       # number of demand (read+write) MSHR misses
system.l2.demand_mshr_misses::cpu.data         518380                       # number of demand (read+write) MSHR misses
system.l2.demand_mshr_misses::total            518725                       # number of demand (read+write) MSHR misses
system.l2.overall_mshr_misses::cpu.inst           345                       # number of overall MSHR misses
system.l2.overall_mshr_misses::cpu.data        518380                       # number of overall MSHR misses
system.l2.overall_mshr_misses::total           518725                       # number of overall MSHR misses
system.l2.ReadExReq_mshr_miss_latency::cpu.data  19460480500                       # number of ReadExReq MSHR miss cycles
system.l2.ReadExReq_mshr_miss_latency::total  19460480500                       # number of ReadExReq MSHR miss cycles
system.l2.ReadCleanReq_mshr_miss_latency::cpu.inst     54667000                       # number of ReadCleanReq MSHR miss cycles
system.l2.ReadCleanReq_mshr_miss_latency::total     54667000                       # number of ReadCleanReq MSHR miss cycles
system.l2.ReadSharedReq_mshr_miss_latency::cpu.data  98169215500                       # number of ReadSharedReq MSHR miss cycles
system.l2.ReadSharedReq_mshr_miss_latency::total  98169215500                       # number of ReadSharedReq MSHR miss cycles
system.l2.demand_mshr_miss_latency::cpu.inst     54667000                       # number of demand (read+write) MSHR miss cycles
system.l2.demand_mshr_miss_latency::cpu.data 117629696000                       # number of demand (read+write) MSHR miss cycles
system.l2.demand_mshr_miss_latency::total 117684363000                       # number of demand (read+write) MSHR miss cycles
system.l2.overall_mshr_miss_latency::cpu.inst     54667000                       # number of overall MSHR miss cycles
system.l2.overall_mshr_miss_latency::cpu.data 117629696000                       # number of overall MSHR miss cycles
system.l2.overall_mshr_miss_latency::total 117684363000                       # number of overall MSHR miss cycles
system.l2.ReadExReq_mshr_miss_rate::cpu.data     0.954269                       # mshr miss rate for ReadExReq accesses
system.l2.ReadExReq_mshr_miss_rate::total     0.954269                       # mshr miss rate for ReadExReq accesses
system.l2.ReadCleanReq_mshr_miss_rate::cpu.inst            1                       # mshr miss rate for ReadCleanReq accesses
system.l2.ReadCleanReq_mshr_miss_rate::total            1                       # mshr miss rate for ReadCleanReq accesses
system.l2.ReadSharedReq_mshr_miss_rate::cpu.data     0.738580                       # mshr miss rate for ReadSharedReq accesses
system.l2.ReadSharedReq_mshr_miss_rate::total     0.738580                       # mshr miss rate for ReadSharedReq accesses
system.l2.demand_mshr_miss_rate::cpu.inst            1                       # mshr miss rate for demand accesses
system.l2.demand_mshr_miss_rate::cpu.data     0.759590                       # mshr miss rate for demand accesses
system.l2.demand_mshr_miss_rate::total       0.759712                       # mshr miss rate for demand accesses
system.l2.overall_mshr_miss_rate::cpu.inst            1                       # mshr miss rate for overall accesses
system.l2.overall_mshr_miss_rate::cpu.data     0.759590                       # mshr miss rate for overall accesses
system.l2.overall_mshr_miss_rate::total      0.759712                       # mshr miss rate for overall accesses
system.l2.ReadExReq_avg_mshr_miss_latency::cpu.data 306773.448830                       # average ReadExReq mshr miss latency
system.l2.ReadExReq_avg_mshr_miss_latency::total 306773.448830                       # average ReadExReq mshr miss latency
system.l2.ReadCleanReq_avg_mshr_miss_latency::cpu.inst 158455.072464                       # average ReadCleanReq mshr miss latency
system.l2.ReadCleanReq_avg_mshr_miss_latency::total 158455.072464                       # average ReadCleanReq mshr miss latency
system.l2.ReadSharedReq_avg_mshr_miss_latency::cpu.data 215783.075499                       # average ReadSharedReq mshr miss latency
system.l2.ReadSharedReq_avg_mshr_miss_latency::total 215783.075499                       # average ReadSharedReq mshr miss latency
system.l2.demand_avg_mshr_miss_latency::cpu.inst 158455.072464                       # average overall mshr miss latency
system.l2.demand_avg_mshr_miss_latency::cpu.data 226917.890351                       # average overall mshr miss latency
system.l2.demand_avg_mshr_miss_latency::total 226872.356258                       # average overall mshr miss latency
system.l2.overall_avg_mshr_miss_latency::cpu.inst 158455.072464                       # average overall mshr miss latency
system.l2.overall_avg_mshr_miss_latency::cpu.data 226917.890351                       # average overall mshr miss latency
system.l2.overall_avg_mshr_miss_latency::total 226872.356258                       # average overall mshr miss latency
system.l2.replacements                         516779                       # number of replacements
system.l3.tags.pwrStateResidencyTicks::UNDEFINED 1108126350000                       # Cumulative time (in ticks) in various power states
system.l3.tags.tagsinuse                 16153.504963                       # Cycle average of tags in use
system.l3.tags.total_refs                     1035136                       # Total number of references to valid blocks.
system.l3.tags.sampled_refs                    287252                       # Sample count of references to valid blocks.
system.l3.tags.avg_refs                      3.603582                       # Average number of references to valid blocks.
system.l3.tags.warmup_cycle                    418000                       # Cycle when the warmup percentage was hit.
system.l3.tags.occ_blocks::writebacks        1.226859                       # Average occupied blocks per requestor
system.l3.tags.occ_blocks::cpu.inst          8.630855                       # Average occupied blocks per requestor
system.l3.tags.occ_blocks::cpu.data      16143.647248                       # Average occupied blocks per requestor
system.l3.tags.occ_percent::writebacks       0.000075                       # Average percentage of cache occupancy
system.l3.tags.occ_percent::cpu.inst         0.000527                       # Average percentage of cache occupancy
system.l3.tags.occ_percent::cpu.data         0.985330                       # Average percentage of cache occupancy
system.l3.tags.occ_percent::total            0.985932                       # Average percentage of cache occupancy
system.l3.tags.occ_task_id_blocks::1024         16384                       # Occupied blocks per task id
system.l3.tags.age_task_id_blocks_1024::0           19                       # Occupied blocks per task id
system.l3.tags.age_task_id_blocks_1024::1           42                       # Occupied blocks per task id
system.l3.tags.age_task_id_blocks_1024::4        16323                       # Occupied blocks per task id
system.l3.tags.occ_task_id_percent::1024            1                       # Percentage of cache occupancy per task id
system.l3.tags.tag_accesses                  16849460                       # Number of tag accesses
system.l3.tags.data_accesses                 16849460                       # Number of data accesses
system.l3.pwrStateResidencyTicks::UNDEFINED 1108126350000                       # Cumulative time (in ticks) in various power states
system.l3.WritebackDirty_hits::writebacks       508227                       # number of WritebackDirty hits
system.l3.WritebackDirty_hits::total           508227                       # number of WritebackDirty hits
system.l3.ReadExReq_hits::cpu.data                694                       # number of ReadExReq hits
system.l3.ReadExReq_hits::total                   694                       # number of ReadExReq hits
system.l3.ReadSharedReq_hits::cpu.data         230793                       # number of ReadSharedReq hits
system.l3.ReadSharedReq_hits::total            230793                       # number of ReadSharedReq hits
system.l3.demand_hits::cpu.data                231487                       # number of demand (read+write) hits
system.l3.demand_hits::total                   231487                       # number of demand (read+write) hits
system.l3.overall_hits::cpu.data               231487                       # number of overall hits
system.l3.overall_hits::total                  231487                       # number of overall hits
system.l3.ReadExReq_misses::cpu.data            62742                       # number of ReadExReq misses
system.l3.ReadExReq_misses::total               62742                       # number of ReadExReq misses
system.l3.ReadSharedReq_misses::cpu.inst          345                       # number of ReadSharedReq misses
system.l3.ReadSharedReq_misses::cpu.data       224151                       # number of ReadSharedReq misses
system.l3.ReadSharedReq_misses::total          224496                       # number of ReadSharedReq misses
system.l3.demand_misses::cpu.inst                 345                       # number of demand (read+write) misses
system.l3.demand_misses::cpu.data              286893                       # number of demand (read+write) misses
system.l3.demand_misses::total                 287238                       # number of demand (read+write) misses
system.l3.overall_misses::cpu.inst                345                       # number of overall misses
system.l3.overall_misses::cpu.data             286893                       # number of overall misses
system.l3.overall_misses::total                287238                       # number of overall misses
system.l3.ReadExReq_miss_latency::cpu.data  18751233500                       # number of ReadExReq miss cycles
system.l3.ReadExReq_miss_latency::total   18751233500                       # number of ReadExReq miss cycles
system.l3.ReadSharedReq_miss_latency::cpu.inst     50872000                       # number of ReadSharedReq miss cycles
system.l3.ReadSharedReq_miss_latency::cpu.data  89356747000                       # number of ReadSharedReq miss cycles
system.l3.ReadSharedReq_miss_latency::total  89407619000                       # number of ReadSharedReq miss cycles
system.l3.demand_miss_latency::cpu.inst      50872000                       # number of demand (read+write) miss cycles
system.l3.demand_miss_latency::cpu.data  108107980500                       # number of demand (read+write) miss cycles
system.l3.demand_miss_latency::total     108158852500                       # number of demand (read+write) miss cycles
system.l3.overall_miss_latency::cpu.inst     50872000                       # number of overall miss cycles
system.l3.overall_miss_latency::cpu.data 108107980500                       # number of overall miss cycles
system.l3.overall_miss_latency::total    108158852500                       # number of overall miss cycles
system.l3.WritebackDirty_accesses::writebacks       508227                       # number of WritebackDirty accesses(hits+misses)
system.l3.WritebackDirty_accesses::total       508227                       # number of WritebackDirty accesses(hits+misses)
system.l3.ReadExReq_accesses::cpu.data          63436                       # number of ReadExReq accesses(hits+misses)
system.l3.ReadExReq_accesses::total             63436                       # number of ReadExReq accesses(hits+misses)
system.l3.ReadSharedReq_accesses::cpu.inst          345                       # number of ReadSharedReq accesses(hits+misses)
system.l3.ReadSharedReq_accesses::cpu.data       454944                       # number of ReadSharedReq accesses(hits+misses)
system.l3.ReadSharedReq_accesses::total        455289                       # number of ReadSharedReq accesses(hits+misses)
system.l3.demand_accesses::cpu.inst               345                       # number of demand (read+write) accesses
system.l3.demand_accesses::cpu.data            518380                       # number of demand (read+write) accesses
system.l3.demand_accesses::total               518725                       # number of demand (read+write) accesses
system.l3.overall_accesses::cpu.inst              345                       # number of overall (read+write) accesses
system.l3.overall_accesses::cpu.data           518380                       # number of overall (read+write) accesses
system.l3.overall_accesses::total              518725                       # number of overall (read+write) accesses
system.l3.ReadExReq_miss_rate::cpu.data      0.989060                       # miss rate for ReadExReq accesses
system.l3.ReadExReq_miss_rate::total         0.989060                       # miss rate for ReadExReq accesses
system.l3.ReadSharedReq_miss_rate::cpu.inst            1                       # miss rate for ReadSharedReq accesses
system.l3.ReadSharedReq_miss_rate::cpu.data     0.492700                       # miss rate for ReadSharedReq accesses
system.l3.ReadSharedReq_miss_rate::total     0.493085                       # miss rate for ReadSharedReq accesses
system.l3.demand_miss_rate::cpu.inst                1                       # miss rate for demand accesses
system.l3.demand_miss_rate::cpu.data         0.553441                       # miss rate for demand accesses
system.l3.demand_miss_rate::total            0.553738                       # miss rate for demand accesses
system.l3.overall_miss_rate::cpu.inst               1                       # miss rate for overall accesses
system.l3.overall_miss_rate::cpu.data        0.553441                       # miss rate for overall accesses
system.l3.overall_miss_rate::total           0.553738                       # miss rate for overall accesses
system.l3.ReadExReq_avg_miss_latency::cpu.data 298862.540244                       # average ReadExReq miss latency
system.l3.ReadExReq_avg_miss_latency::total 298862.540244                       # average ReadExReq miss latency
system.l3.ReadSharedReq_avg_miss_latency::cpu.inst 147455.072464                       # average ReadSharedReq miss latency
system.l3.ReadSharedReq_avg_miss_latency::cpu.data 398645.319450                       # average ReadSharedReq miss latency
system.l3.ReadSharedReq_avg_miss_latency::total 398259.296379                       # average ReadSharedReq miss latency
system.l3.demand_avg_miss_latency::cpu.inst 147455.072464                       # average overall miss latency
system.l3.demand_avg_miss_latency::cpu.data 376823.347032                       # average overall miss latency
system.l3.demand_avg_miss_latency::total 376547.854044                       # average overall miss latency
system.l3.overall_avg_miss_latency::cpu.inst 147455.072464                       # average overall miss latency
system.l3.overall_avg_miss_latency::cpu.data 376823.347032                       # average overall miss latency
system.l3.overall_avg_miss_latency::total 376547.854044                       # average overall miss latency
system.l3.blocked_cycles::no_mshrs                  0                       # number of cycles access was blocked
system.l3.blocked_cycles::no_targets                0                       # number of cycles access was blocked
system.l3.blocked::no_mshrs                         0                       # number of cycles access was blocked
system.l3.blocked::no_targets                       0                       # number of cycles access was blocked
system.l3.avg_blocked_cycles::no_mshrs            nan                       # average number of cycles each access was blocked
system.l3.avg_blocked_cycles::no_targets          nan                       # average number of cycles each access was blocked
system.l3.writebacks::writebacks               264166                       # number of writebacks
system.l3.writebacks::total                    264166                       # number of writebacks
system.l3.CleanEvict_mshr_misses::writebacks            2                       # number of CleanEvict MSHR misses
system.l3.CleanEvict_mshr_misses::total             2                       # number of CleanEvict MSHR misses
system.l3.ReadExReq_mshr_misses::cpu.data        62742                       # number of ReadExReq MSHR misses
system.l3.ReadExReq_mshr_misses::total          62742                       # number of ReadExReq MSHR misses
system.l3.ReadSharedReq_mshr_misses::cpu.inst          345                       # number of ReadSharedReq MSHR misses
system.l3.ReadSharedReq_mshr_misses::cpu.data       224151                       # number of ReadSharedReq MSHR misses
system.l3.ReadSharedReq_mshr_misses::total       224496                       # number of ReadSharedReq MSHR misses
system.l3.demand_mshr_misses::cpu.inst            345                       # number of demand (read+write) MSHR misses
system.l3.demand_mshr_misses::cpu.data         286893                       # number of demand (read+write) MSHR misses
system.l3.demand_mshr_misses::total            287238                       # number of demand (read+write) MSHR misses
system.l3.overall_mshr_misses::cpu.inst           345                       # number of overall MSHR misses
system.l3.overall_mshr_misses::cpu.data        286893                       # number of overall MSHR misses
system.l3.overall_mshr_misses::total           287238                       # number of overall MSHR misses
system.l3.ReadExReq_mshr_miss_latency::cpu.data  17747361500                       # number of ReadExReq MSHR miss cycles
system.l3.ReadExReq_mshr_miss_latency::total  17747361500                       # number of ReadExReq MSHR miss cycles
system.l3.ReadSharedReq_mshr_miss_latency::cpu.inst     45352000                       # number of ReadSharedReq MSHR miss cycles
system.l3.ReadSharedReq_mshr_miss_latency::cpu.data  85770331000                       # number of ReadSharedReq MSHR miss cycles
system.l3.ReadSharedReq_mshr_miss_latency::total  85815683000                       # number of ReadSharedReq MSHR miss cycles
system.l3.demand_mshr_miss_latency::cpu.inst     45352000                       # number of demand (read+write) MSHR miss cycles
system.l3.demand_mshr_miss_latency::cpu.data 103517692500                       # number of demand (read+write) MSHR miss cycles
system.l3.demand_mshr_miss_latency::total 103563044500                       # number of demand (read+write) MSHR miss cycles
system.l3.overall_mshr_miss_latency::cpu.inst     45352000                       # number of overall MSHR miss cycles
system.l3.overall_mshr_miss_latency::cpu.data 103517692500                       # number of overall MSHR miss cycles
system.l3.overall_mshr_miss_latency::total 103563044500                       # number of overall MSHR miss cycles
system.l3.CleanEvict_mshr_miss_rate::writebacks          inf                       # mshr miss rate for CleanEvict accesses
system.l3.CleanEvict_mshr_miss_rate::total          inf                       # mshr miss rate for CleanEvict accesses
system.l3.ReadExReq_mshr_miss_rate::cpu.data     0.989060                       # mshr miss rate for ReadExReq accesses
system.l3.ReadExReq_mshr_miss_rate::total     0.989060                       # mshr miss rate for ReadExReq accesses
system.l3.ReadSharedReq_mshr_miss_rate::cpu.inst            1                       # mshr miss rate for ReadSharedReq accesses
system.l3.ReadSharedReq_mshr_miss_rate::cpu.data     0.492700                       # mshr miss rate for ReadSharedReq accesses
system.l3.ReadSharedReq_mshr_miss_rate::total     0.493085                       # mshr miss rate for ReadSharedReq accesses
system.l3.demand_mshr_miss_rate::cpu.inst            1                       # mshr miss rate for demand accesses
system.l3.demand_mshr_miss_rate::cpu.data     0.553441                       # mshr miss rate for demand accesses
system.l3.demand_mshr_miss_rate::total       0.553738                       # mshr miss rate for demand accesses
system.l3.overall_mshr_miss_rate::cpu.inst            1                       # mshr miss rate for overall accesses
system.l3.overall_mshr_miss_rate::cpu.data     0.553441                       # mshr miss rate for overall accesses
system.l3.overall_mshr_miss_rate::total      0.553738                       # mshr miss rate for overall accesses
system.l3.ReadExReq_avg_mshr_miss_latency::cpu.data 282862.540244                       # average ReadExReq mshr miss latency
system.l3.ReadExReq_avg_mshr_miss_latency::total 282862.540244                       # average ReadExReq mshr miss latency
system.l3.ReadSharedReq_avg_mshr_miss_latency::cpu.inst 131455.072464                       # average ReadSharedReq mshr miss latency
system.l3.ReadSharedReq_avg_mshr_miss_latency::cpu.data 382645.319450                       # average ReadSharedReq mshr miss latency
system.l3.ReadSharedReq_avg_mshr_miss_latency::total 382259.296379                       # average ReadSharedReq mshr miss latency
system.l3.demand_avg_mshr_miss_latency::cpu.inst 131455.072464                       # average overall mshr miss latency
system.l3.demand_avg_mshr_miss_latency::cpu.data 360823.347032                       # average overall mshr miss latency
system.l3.demand_avg_mshr_miss_latency::total 360547.854044                       # average overall mshr miss latency
system.l3.overall_avg_mshr_miss_latency::cpu.inst 131455.072464                       # average overall mshr miss latency
system.l3.overall_avg_mshr_miss_latency::cpu.data 360823.347032                       # average overall mshr miss latency
system.l3.overall_avg_mshr_miss_latency::total 360547.854044                       # average overall mshr miss latency
system.l3.replacements                         270868                       # number of replacements
system.membus.snoop_filter.tot_requests        557846                       # Total number of requests made to the snoop filter.
system.membus.snoop_filter.hit_single_requests       270608                       # Number of requests hitting in the snoop filter with a single holder of the requested data.
system.membus.snoop_filter.hit_multi_requests            0                       # Number of requests hitting in the snoop filter with multiple (>1) holders of the requested data.
system.membus.snoop_filter.tot_snoops               0                       # Total number of snoops made to the snoop filter.
system.membus.snoop_filter.hit_single_snoops            0                       # Number of snoops hitting in the snoop filter with a single holder of the requested data.
system.membus.snoop_filter.hit_multi_snoops            0                       # Number of snoops hitting in the snoop filter with multiple (>1) holders of the requested data.
system.membus.pwrStateResidencyTicks::UNDEFINED 1108126350000                       # Cumulative time (in ticks) in various power states
system.membus.trans_dist::ReadResp             224496                       # Transaction distribution
system.membus.trans_dist::WritebackDirty       264166                       # Transaction distribution
system.membus.trans_dist::CleanEvict             6415                       # Transaction distribution
system.membus.trans_dist::ReadExReq             62742                       # Transaction distribution
system.membus.trans_dist::ReadExResp            62742                       # Transaction distribution
system.membus.trans_dist::ReadSharedReq        224496                       # Transaction distribution
system.membus.pkt_count_system.l3.mem_side::system.mem_ctrls.port       845057                       # Packet count per connected master and slave (bytes)
system.membus.pkt_count_system.l3.mem_side::total       845057                       # Packet count per connected master and slave (bytes)
system.membus.pkt_count::total                 845057                       # Packet count per connected master and slave (bytes)
system.membus.pkt_size_system.l3.mem_side::system.mem_ctrls.port     35289856                       # Cumulative packet size per connected master and slave (bytes)
system.membus.pkt_size_system.l3.mem_side::total     35289856                       # Cumulative packet size per connected master and slave (bytes)
system.membus.pkt_size::total                35289856                       # Cumulative packet size per connected master and slave (bytes)
system.membus.snoops                                0                       # Total snoops (count)
system.membus.snoopTraffic                          0                       # Total snoop traffic (bytes)
system.membus.snoop_fanout::samples            287238                       # Request fanout histogram
system.membus.snoop_fanout::mean                    0                       # Request fanout histogram
system.membus.snoop_fanout::stdev                   0                       # Request fanout histogram
system.membus.snoop_fanout::underflows              0      0.00%      0.00% # Request fanout histogram
system.membus.snoop_fanout::0                  287238    100.00%    100.00% # Request fanout histogram
system.membus.snoop_fanout::1                       0      0.00%    100.00% # Request fanout histogram
system.membus.snoop_fanout::overflows               0      0.00%    100.00% # Request fanout histogram
system.membus.snoop_fanout::min_value               0                       # Request fanout histogram
system.membus.snoop_fanout::max_value               0                       # Request fanout histogram
system.membus.snoop_fanout::total              287238                       # Request fanout histogram
system.membus.reqLayer2.occupancy          1614513500                       # Layer occupancy (ticks)
system.membus.reqLayer2.utilization               0.1                       # Layer utilization (%)
system.membus.respLayer1.occupancy         1436193500                       # Layer occupancy (ticks)
system.membus.respLayer1.utilization              0.1                       # Layer utilization (%)
system.tol2bus.snoop_filter.tot_requests      1577440                       # Total number of requests made to the snoop filter.
system.tol2bus.snoop_filter.hit_single_requests       894648                       # Number of requests hitting in the snoop filter with a single holder of the requested data.
system.tol2bus.snoop_filter.hit_multi_requests            0                       # Number of requests hitting in the snoop filter with multiple (>1) holders of the requested data.
system.tol2bus.snoop_filter.tot_snoops            654                       # Total number of snoops made to the snoop filter.
system.tol2bus.snoop_filter.hit_single_snoops          654                       # Number of snoops hitting in the snoop filter with a single holder of the requested data.
system.tol2bus.snoop_filter.hit_multi_snoops            0                       # Number of snoops hitting in the snoop filter with multiple (>1) holders of the requested data.
system.tol2bus.pwrStateResidencyTicks::UNDEFINED 1108126350000                       # Cumulative time (in ticks) in various power states
system.tol2bus.trans_dist::ReadResp            616316                       # Transaction distribution
system.tol2bus.trans_dist::WritebackDirty      1165554                       # Transaction distribution
system.tol2bus.trans_dist::WritebackClean           48                       # Transaction distribution
system.tol2bus.trans_dist::CleanEvict           33449                       # Transaction distribution
system.tol2bus.trans_dist::UpgradeReq          212665                       # Transaction distribution
system.tol2bus.trans_dist::UpgradeResp         212665                       # Transaction distribution
system.tol2bus.trans_dist::ReadExReq            66476                       # Transaction distribution
system.tol2bus.trans_dist::ReadExResp           66476                       # Transaction distribution
system.tol2bus.trans_dist::ReadCleanReq           345                       # Transaction distribution
system.tol2bus.trans_dist::ReadSharedReq       615971                       # Transaction distribution
system.tol2bus.pkt_count_system.cpu.icache.mem_side::system.l2.cpu_side          738                       # Packet count per connected master and slave (bytes)
system.tol2bus.pkt_count_system.cpu.dcache.mem_side::system.l2.cpu_side      2472159                       # Packet count per connected master and slave (bytes)
system.tol2bus.pkt_count::total               2472897                       # Packet count per connected master and slave (bytes)
system.tol2bus.pkt_size_system.cpu.icache.mem_side::system.l2.cpu_side        25152                       # Cumulative packet size per connected master and slave (bytes)
system.tol2bus.pkt_size_system.cpu.dcache.mem_side::system.l2.cpu_side     85745472                       # Cumulative packet size per connected master and slave (bytes)
system.tol2bus.pkt_size::total               85770624                       # Cumulative packet size per connected master and slave (bytes)
system.tol2bus.snoops                          517068                       # Total snoops (count)
system.tol2bus.snoopTraffic                  32526592                       # Total snoop traffic (bytes)
system.tol2bus.snoop_fanout::samples          1412525                       # Request fanout histogram
system.tol2bus.snoop_fanout::mean            0.000463                       # Request fanout histogram
system.tol2bus.snoop_fanout::stdev           0.021512                       # Request fanout histogram
system.tol2bus.snoop_fanout::underflows             0      0.00%      0.00% # Request fanout histogram
system.tol2bus.snoop_fanout::0                1411871     99.95%     99.95% # Request fanout histogram
system.tol2bus.snoop_fanout::1                    654      0.05%    100.00% # Request fanout histogram
system.tol2bus.snoop_fanout::2                      0      0.00%    100.00% # Request fanout histogram
system.tol2bus.snoop_fanout::3                      0      0.00%    100.00% # Request fanout histogram
system.tol2bus.snoop_fanout::4                      0      0.00%    100.00% # Request fanout histogram
system.tol2bus.snoop_fanout::overflows              0      0.00%    100.00% # Request fanout histogram
system.tol2bus.snoop_fanout::min_value              0                       # Request fanout histogram
system.tol2bus.snoop_fanout::max_value              1                       # Request fanout histogram
system.tol2bus.snoop_fanout::total            1412525                       # Request fanout histogram
system.tol2bus.reqLayer0.occupancy         1446094000                       # Layer occupancy (ticks)
system.tol2bus.reqLayer0.utilization              0.1                       # Layer utilization (%)
system.tol2bus.respLayer0.occupancy            517500                       # Layer occupancy (ticks)
system.tol2bus.respLayer0.utilization             0.0                       # Layer utilization (%)
system.tol2bus.respLayer1.occupancy        1130003000                       # Layer occupancy (ticks)
system.tol2bus.respLayer1.utilization             0.1                       # Layer utilization (%)
system.tol3bus.snoop_filter.tot_requests      1035138                       # Total number of requests made to the snoop filter.
system.tol3bus.snoop_filter.hit_single_requests       516413                       # Number of requests hitting in the snoop filter with a single holder of the requested data.
system.tol3bus.snoop_filter.hit_multi_requests            0                       # Number of requests hitting in the snoop filter with multiple (>1) holders of the requested data.
system.tol3bus.snoop_filter.tot_snoops            289                       # Total number of snoops made to the snoop filter.
system.tol3bus.snoop_filter.hit_single_snoops          289                       # Number of snoops hitting in the snoop filter with a single holder of the requested data.
system.tol3bus.snoop_filter.hit_multi_snoops            0                       # Number of snoops hitting in the snoop filter with multiple (>1) holders of the requested data.
system.tol3bus.pwrStateResidencyTicks::UNDEFINED 1108126350000                       # Cumulative time (in ticks) in various power states
system.tol3bus.trans_dist::ReadResp            455289                       # Transaction distribution
system.tol3bus.trans_dist::WritebackDirty       772393                       # Transaction distribution
system.tol3bus.trans_dist::CleanEvict           14888                       # Transaction distribution
system.tol3bus.trans_dist::ReadExReq            63436                       # Transaction distribution
system.tol3bus.trans_dist::ReadExResp           63436                       # Transaction distribution
system.tol3bus.trans_dist::ReadSharedReq       455289                       # Transaction distribution
system.tol3bus.pkt_count_system.l2.mem_side::system.l3.cpu_side      1553863                       # Packet count per connected master and slave (bytes)
system.tol3bus.pkt_size_system.l2.mem_side::system.l3.cpu_side     65724928                       # Cumulative packet size per connected master and slave (bytes)
system.tol3bus.snoops                          270868                       # Total snoops (count)
system.tol3bus.snoopTraffic                  16906624                       # Total snoop traffic (bytes)
system.tol3bus.snoop_fanout::samples           789593                       # Request fanout histogram
system.tol3bus.snoop_fanout::mean            0.000366                       # Request fanout histogram
system.tol3bus.snoop_fanout::stdev           0.019128                       # Request fanout histogram
system.tol3bus.snoop_fanout::underflows             0      0.00%      0.00% # Request fanout histogram
system.tol3bus.snoop_fanout::0                 789304     99.96%     99.96% # Request fanout histogram
system.tol3bus.snoop_fanout::1                    289      0.04%    100.00% # Request fanout histogram
system.tol3bus.snoop_fanout::overflows              0      0.00%    100.00% # Request fanout histogram
system.tol3bus.snoop_fanout::min_value              0                       # Request fanout histogram
system.tol3bus.snoop_fanout::max_value              1                       # Request fanout histogram
system.tol3bus.snoop_fanout::total             789593                       # Request fanout histogram
system.tol3bus.reqLayer0.occupancy         1025796000                       # Layer occupancy (ticks)
system.tol3bus.reqLayer0.utilization              0.1                       # Layer utilization (%)
system.tol3bus.respLayer0.occupancy         778087500                       # Layer occupancy (ticks)
system.tol3bus.respLayer0.utilization             0.1                       # Layer utilization (%)

---------- End Simulation Statistics   ----------
