
---------- Begin Simulation Statistics ----------
sim_seconds                                  1.112037                       # Number of seconds simulated
sim_ticks                                1112037318000                       # Number of ticks simulated
final_tick                               1112037318000                       # Number of ticks from beginning of simulation (restored from checkpoints and never reset)
sim_freq                                 1000000000000                       # Frequency of simulated ticks
host_inst_rate                                 610448                       # Simulator instruction rate (inst/s)
host_op_rate                                   989921                       # Simulator op (including micro ops) rate (op/s)
host_tick_rate                             1346669413                       # Simulator tick rate (ticks/s)
host_mem_usage                                 671548                       # Number of bytes of host memory used
host_seconds                                   825.77                       # Real time elapsed on the host
sim_insts                                   504088751                       # Number of instructions simulated
sim_ops                                     817446081                       # Number of ops (including micro ops) simulated
system.voltage_domain.voltage                       1                       # Voltage in Volts
system.clk_domain.clock                          1000                       # Clock period in ticks
system.mem_ctrls.pwrStateResidencyTicks::UNDEFINED 1112037318000                       # Cumulative time (in ticks) in various power states
system.mem_ctrls.bytes_read::cpu.inst           21888                       # Number of bytes read from this memory
system.mem_ctrls.bytes_read::cpu.data        17903936                       # Number of bytes read from this memory
system.mem_ctrls.bytes_read::total           17925824                       # Number of bytes read from this memory
system.mem_ctrls.bytes_inst_read::cpu.inst        21888                       # Number of instructions bytes read from this memory
system.mem_ctrls.bytes_inst_read::total         21888                       # Number of instructions bytes read from this memory
system.mem_ctrls.bytes_written::writebacks     16444032                       # Number of bytes written to this memory
system.mem_ctrls.bytes_written::total        16444032                       # Number of bytes written to this memory
system.mem_ctrls.num_reads::cpu.inst              342                       # Number of read requests responded to by this memory
system.mem_ctrls.num_reads::cpu.data           279749                       # Number of read requests responded to by this memory
system.mem_ctrls.num_reads::total              280091                       # Number of read requests responded to by this memory
system.mem_ctrls.num_writes::writebacks        256938                       # Number of write requests responded to by this memory
system.mem_ctrls.num_writes::total             256938                       # Number of write requests responded to by this memory
system.mem_ctrls.bw_read::cpu.inst              19683                       # Total read bandwidth from this memory (bytes/s)
system.mem_ctrls.bw_read::cpu.data           16100122                       # Total read bandwidth from this memory (bytes/s)
system.mem_ctrls.bw_read::total              16119804                       # Total read bandwidth from this memory (bytes/s)
system.mem_ctrls.bw_inst_read::cpu.inst         19683                       # Instruction read bandwidth from this memory (bytes/s)
system.mem_ctrls.bw_inst_read::total            19683                       # Instruction read bandwidth from this memory (bytes/s)
system.mem_ctrls.bw_write::writebacks        14787302                       # Write bandwidth from this memory (bytes/s)
system.mem_ctrls.bw_write::total             14787302                       # Write bandwidth from this memory (bytes/s)
system.mem_ctrls.bw_total::writebacks        14787302                       # Total bandwidth to/from this memory (bytes/s)
system.mem_ctrls.bw_total::cpu.inst             19683                       # Total bandwidth to/from this memory (bytes/s)
system.mem_ctrls.bw_total::cpu.data          16100122                       # Total bandwidth to/from this memory (bytes/s)
system.mem_ctrls.bw_total::total             30907107                       # Total bandwidth to/from this memory (bytes/s)
system.pwrStateResidencyTicks::UNDEFINED 1112037318000                       # Cumulative time (in ticks) in various power states
system.cpu_voltage_domain.voltage                   1                       # Voltage in Volts
system.cpu_clk_domain.clock                       500                       # Clock period in ticks
system.cpu.dtb.walker.pwrStateResidencyTicks::UNDEFINED 1112037318000                       # Cumulative time (in ticks) in various power states
system.cpu.dtb.rdAccesses                   238245976                       # TLB accesses on read requests
system.cpu.dtb.wrAccesses                    64374646                       # TLB accesses on write requests
system.cpu.dtb.rdMisses                          5921                       # TLB misses on read requests
system.cpu.dtb.wrMisses                           999                       # TLB misses on write requests
system.cpu.apic_clk_domain.clock                 8000                       # Clock period in ticks
system.cpu.interrupts.pwrStateResidencyTicks::UNDEFINED 1112037318000                       # Cumulative time (in ticks) in various power states
system.cpu.itb.walker.pwrStateResidencyTicks::UNDEFINED 1112037318000                       # Cumulative time (in ticks) in various power states
system.cpu.itb.rdAccesses                           0                       # TLB accesses on read requests
system.cpu.itb.wrAccesses                   677335179                       # TLB accesses on write requests
system.cpu.itb.rdMisses                             0                       # TLB misses on read requests
system.cpu.itb.wrMisses                            35                       # TLB misses on write requests
system.cpu.workload.numSyscalls                     9                       # Number of system calls
system.cpu.pwrStateResidencyTicks::ON    1112037318000                       # Cumulative time (in ticks) in various power states
system.cpu.numCycles                       2224074636                       # number of cpu cycles simulated
system.cpu.numWorkItemsStarted                      0                       # number of work items this cpu started
system.cpu.numWorkItemsCompleted                    0                       # number of work items this cpu completed
system.cpu.committedInsts                   504088751                       # Number of instructions committed
system.cpu.committedOps                     817446081                       # Number of ops (including micro ops) committed
system.cpu.num_int_alu_accesses             812629962                       # Number of integer alu accesses
system.cpu.num_fp_alu_accesses                   1943                       # Number of float alu accesses
system.cpu.num_vec_alu_accesses                     0                       # Number of vector alu accesses
system.cpu.num_func_calls                     9452832                       # number of times a function call or return occured
system.cpu.num_conditional_control_insts     46565887                       # number of instructions that are conditional controls
system.cpu.num_int_insts                    812629962                       # number of integer instructions
system.cpu.num_fp_insts                          1943                       # number of float instructions
system.cpu.num_vec_insts                            0                       # number of vector instructions
system.cpu.num_int_register_reads          1822855533                       # number of times the integer registers were read
system.cpu.num_int_register_writes          705741295                       # number of times the integer registers were written
system.cpu.num_fp_register_reads                 3767                       # number of times the floating registers were read
system.cpu.num_fp_register_writes                1480                       # number of times the floating registers were written
system.cpu.num_vec_register_reads                   0                       # number of times the vector registers were read
system.cpu.num_vec_register_writes                  0                       # number of times the vector registers were written
system.cpu.num_cc_register_reads            297557760                       # number of times the CC registers were read
system.cpu.num_cc_register_writes           279904580                       # number of times the CC registers were written
system.cpu.num_mem_refs                     302620620                       # number of memory refs
system.cpu.num_load_insts                   238245974                       # Number of load instructions
system.cpu.num_store_insts                   64374646                       # Number of store instructions
system.cpu.num_idle_cycles                          0                       # Number of idle cycles
system.cpu.num_busy_cycles                 2224074636                       # Number of busy cycles
system.cpu.not_idle_fraction                        1                       # Percentage of non-idle cycles
system.cpu.idle_fraction                            0                       # Percentage of idle cycles
system.cpu.Branches                          60772143                       # Number of branches fetched
system.cpu.op_class::No_OpClass               1362109      0.17%      0.17% # Class of executed instruction
system.cpu.op_class::IntAlu                 505014342     61.78%     61.95% # Class of executed instruction
system.cpu.op_class::IntMult                        4      0.00%     61.95% # Class of executed instruction
system.cpu.op_class::IntDiv                   8448046      1.03%     62.98% # Class of executed instruction
system.cpu.op_class::FloatAdd                      10      0.00%     62.98% # Class of executed instruction
system.cpu.op_class::FloatCmp                       0      0.00%     62.98% # Class of executed instruction
system.cpu.op_class::FloatCvt                       0      0.00%     62.98% # Class of executed instruction
system.cpu.op_class::FloatMult                      0      0.00%     62.98% # Class of executed instruction
system.cpu.op_class::FloatMultAcc                   0      0.00%     62.98% # Class of executed instruction
system.cpu.op_class::FloatDiv                       0      0.00%     62.98% # Class of executed instruction
system.cpu.op_class::FloatMisc                      0      0.00%     62.98% # Class of executed instruction
system.cpu.op_class::FloatSqrt                      0      0.00%     62.98% # Class of executed instruction
system.cpu.op_class::SimdAdd                      374      0.00%     62.98% # Class of executed instruction
system.cpu.op_class::SimdAddAcc                     0      0.00%     62.98% # Class of executed instruction
system.cpu.op_class::SimdAlu                       68      0.00%     62.98% # Class of executed instruction
system.cpu.op_class::SimdCmp                        0      0.00%     62.98% # Class of executed instruction
system.cpu.op_class::SimdCvt                      108      0.00%     62.98% # Class of executed instruction
system.cpu.op_class::SimdMisc                     214      0.00%     62.98% # Class of executed instruction
system.cpu.op_class::SimdMult                       0      0.00%     62.98% # Class of executed instruction
system.cpu.op_class::SimdMultAcc                    0      0.00%     62.98% # Class of executed instruction
system.cpu.op_class::SimdShift                    186      0.00%     62.98% # Class of executed instruction
system.cpu.op_class::SimdShiftAcc                   0      0.00%     62.98% # Class of executed instruction
system.cpu.op_class::SimdSqrt                       0      0.00%     62.98% # Class of executed instruction
system.cpu.op_class::SimdFloatAdd                   0      0.00%     62.98% # Class of executed instruction
system.cpu.op_class::SimdFloatAlu                   0      0.00%     62.98% # Class of executed instruction
system.cpu.op_class::SimdFloatCmp                   0      0.00%     62.98% # Class of executed instruction
system.cpu.op_class::SimdFloatCvt                   0      0.00%     62.98% # Class of executed instruction
system.cpu.op_class::SimdFloatDiv                   0      0.00%     62.98% # Class of executed instruction
system.cpu.op_class::SimdFloatMisc                  0      0.00%     62.98% # Class of executed instruction
system.cpu.op_class::SimdFloatMult                  0      0.00%     62.98% # Class of executed instruction
system.cpu.op_class::SimdFloatMultAcc               0      0.00%     62.98% # Class of executed instruction
system.cpu.op_class::SimdFloatSqrt                  0      0.00%     62.98% # Class of executed instruction
system.cpu.op_class::MemRead                238245918     29.15%     92.12% # Class of executed instruction
system.cpu.op_class::MemWrite                64374231      7.88%    100.00% # Class of executed instruction
system.cpu.op_class::FloatMemRead                  56      0.00%    100.00% # Class of executed instruction
system.cpu.op_class::FloatMemWrite                415      0.00%    100.00% # Class of executed instruction
system.cpu.op_class::IprAccess                      0      0.00%    100.00% # Class of executed instruction
system.cpu.op_class::InstPrefetch                   0      0.00%    100.00% # Class of executed instruction
system.cpu.op_class::total                  817446081                       # Class of executed instruction
system.cpu.dcache.tags.pwrStateResidencyTicks::UNDEFINED 1112037318000                       # Cumulative time (in ticks) in various power states
system.cpu.dcache.tags.tagsinuse           511.824733                       # Cycle average of tags in use
system.cpu.dcache.tags.total_refs           302620622                       # Total number of references to valid blocks.
system.cpu.dcache.tags.sampled_refs            682445                       # Sample count of references to valid blocks.
system.cpu.dcache.tags.avg_refs            443.435914                       # Average number of references to valid blocks.
system.cpu.dcache.tags.warmup_cycle            765000                       # Cycle when the warmup percentage was hit.
system.cpu.dcache.tags.occ_blocks::cpu.data   511.824733                       # Average occupied blocks per requestor
system.cpu.dcache.tags.occ_percent::cpu.data     0.999658                       # Average percentage of cache occupancy
system.cpu.dcache.tags.occ_percent::total     0.999658                       # Average percentage of cache occupancy
system.cpu.dcache.tags.occ_task_id_blocks::1024          512                       # Occupied blocks per task id
system.cpu.dcache.tags.age_task_id_blocks_1024::0           11                       # Occupied blocks per task id
system.cpu.dcache.tags.age_task_id_blocks_1024::1           19                       # Occupied blocks per task id
system.cpu.dcache.tags.age_task_id_blocks_1024::2           54                       # Occupied blocks per task id
system.cpu.dcache.tags.age_task_id_blocks_1024::3          421                       # Occupied blocks per task id
system.cpu.dcache.tags.age_task_id_blocks_1024::4            7                       # Occupied blocks per task id
system.cpu.dcache.tags.occ_task_id_percent::1024            1                       # Percentage of cache occupancy per task id
system.cpu.dcache.tags.tag_accesses         605923689                       # Number of tag accesses
system.cpu.dcache.tags.data_accesses        605923689                       # Number of data accesses
system.cpu.dcache.pwrStateResidencyTicks::UNDEFINED 1112037318000                       # Cumulative time (in ticks) in various power states
system.cpu.dcache.ReadReq_hits::cpu.data    237630007                       # number of ReadReq hits
system.cpu.dcache.ReadReq_hits::total       237630007                       # number of ReadReq hits
system.cpu.dcache.WriteReq_hits::cpu.data     64088247                       # number of WriteReq hits
system.cpu.dcache.WriteReq_hits::total       64088247                       # number of WriteReq hits
system.cpu.dcache.demand_hits::cpu.data     301718254                       # number of demand (read+write) hits
system.cpu.dcache.demand_hits::total        301718254                       # number of demand (read+write) hits
system.cpu.dcache.overall_hits::cpu.data    301718254                       # number of overall hits
system.cpu.dcache.overall_hits::total       301718254                       # number of overall hits
system.cpu.dcache.ReadReq_misses::cpu.data       615969                       # number of ReadReq misses
system.cpu.dcache.ReadReq_misses::total        615969                       # number of ReadReq misses
system.cpu.dcache.WriteReq_misses::cpu.data       286399                       # number of WriteReq misses
system.cpu.dcache.WriteReq_misses::total       286399                       # number of WriteReq misses
system.cpu.dcache.demand_misses::cpu.data       902368                       # number of demand (read+write) misses
system.cpu.dcache.demand_misses::total         902368                       # number of demand (read+write) misses
system.cpu.dcache.overall_misses::cpu.data       902368                       # number of overall misses
system.cpu.dcache.overall_misses::total        902368                       # number of overall misses
system.cpu.dcache.ReadReq_miss_latency::cpu.data 109774699000                       # number of ReadReq miss cycles
system.cpu.dcache.ReadReq_miss_latency::total 109774699000                       # number of ReadReq miss cycles
system.cpu.dcache.WriteReq_miss_latency::cpu.data  23149763000                       # number of WriteReq miss cycles
system.cpu.dcache.WriteReq_miss_latency::total  23149763000                       # number of WriteReq miss cycles
system.cpu.dcache.demand_miss_latency::cpu.data 132924462000                       # number of demand (read+write) miss cycles
system.cpu.dcache.demand_miss_latency::total 132924462000                       # number of demand (read+write) miss cycles
system.cpu.dcache.overall_miss_latency::cpu.data 132924462000                       # number of overall miss cycles
system.cpu.dcache.overall_miss_latency::total 132924462000                       # number of overall miss cycles
system.cpu.dcache.ReadReq_accesses::cpu.data    238245976                       # number of ReadReq accesses(hits+misses)
system.cpu.dcache.ReadReq_accesses::total    238245976                       # number of ReadReq accesses(hits+misses)
system.cpu.dcache.WriteReq_accesses::cpu.data     64374646                       # number of WriteReq accesses(hits+misses)
system.cpu.dcache.WriteReq_accesses::total     64374646                       # number of WriteReq accesses(hits+misses)
system.cpu.dcache.demand_accesses::cpu.data    302620622                       # number of demand (read+write) accesses
system.cpu.dcache.demand_accesses::total    302620622                       # number of demand (read+write) accesses
system.cpu.dcache.overall_accesses::cpu.data    302620622                       # number of overall (read+write) accesses
system.cpu.dcache.overall_accesses::total    302620622                       # number of overall (read+write) accesses
system.cpu.dcache.ReadReq_miss_rate::cpu.data     0.002585                       # miss rate for ReadReq accesses
system.cpu.dcache.ReadReq_miss_rate::total     0.002585                       # miss rate for ReadReq accesses
system.cpu.dcache.WriteReq_miss_rate::cpu.data     0.004449                       # miss rate for WriteReq accesses
system.cpu.dcache.WriteReq_miss_rate::total     0.004449                       # miss rate for WriteReq accesses
system.cpu.dcache.demand_miss_rate::cpu.data     0.002982                       # miss rate for demand accesses
system.cpu.dcache.demand_miss_rate::total     0.002982                       # miss rate for demand accesses
system.cpu.dcache.overall_miss_rate::cpu.data     0.002982                       # miss rate for overall accesses
system.cpu.dcache.overall_miss_rate::total     0.002982                       # miss rate for overall accesses
system.cpu.dcache.ReadReq_avg_miss_latency::cpu.data 178214.648789                       # average ReadReq miss latency
system.cpu.dcache.ReadReq_avg_miss_latency::total 178214.648789                       # average ReadReq miss latency
system.cpu.dcache.WriteReq_avg_miss_latency::cpu.data 80830.460302                       # average WriteReq miss latency
system.cpu.dcache.WriteReq_avg_miss_latency::total 80830.460302                       # average WriteReq miss latency
system.cpu.dcache.demand_avg_miss_latency::cpu.data 147306.267509                       # average overall miss latency
system.cpu.dcache.demand_avg_miss_latency::total 147306.267509                       # average overall miss latency
system.cpu.dcache.overall_avg_miss_latency::cpu.data 147306.267509                       # average overall miss latency
system.cpu.dcache.overall_avg_miss_latency::total 147306.267509                       # average overall miss latency
system.cpu.dcache.blocked_cycles::no_mshrs            0                       # number of cycles access was blocked
system.cpu.dcache.blocked_cycles::no_targets            0                       # number of cycles access was blocked
system.cpu.dcache.blocked::no_mshrs                 0                       # number of cycles access was blocked
system.cpu.dcache.blocked::no_targets               0                       # number of cycles access was blocked
system.cpu.dcache.avg_blocked_cycles::no_mshrs          nan                       # average number of cycles each access was blocked
system.cpu.dcache.avg_blocked_cycles::no_targets          nan                       # average number of cycles each access was blocked
system.cpu.dcache.writebacks::writebacks       657325                       # number of writebacks
system.cpu.dcache.writebacks::total            657325                       # number of writebacks
system.cpu.dcache.ReadReq_mshr_misses::cpu.data       615969                       # number of ReadReq MSHR misses
system.cpu.dcache.ReadReq_mshr_misses::total       615969                       # number of ReadReq MSHR misses
system.cpu.dcache.WriteReq_mshr_misses::cpu.data       286399                       # number of WriteReq MSHR misses
system.cpu.dcache.WriteReq_mshr_misses::total       286399                       # number of WriteReq MSHR misses
system.cpu.dcache.demand_mshr_misses::cpu.data       902368                       # number of demand (read+write) MSHR misses
system.cpu.dcache.demand_mshr_misses::total       902368                       # number of demand (read+write) MSHR misses
system.cpu.dcache.overall_mshr_misses::cpu.data       902368                       # number of overall MSHR misses
system.cpu.dcache.overall_mshr_misses::total       902368                       # number of overall MSHR misses
system.cpu.dcache.ReadReq_mshr_miss_latency::cpu.data 109158730000                       # number of ReadReq MSHR miss cycles
system.cpu.dcache.ReadReq_mshr_miss_latency::total 109158730000                       # number of ReadReq MSHR miss cycles
system.cpu.dcache.WriteReq_mshr_miss_latency::cpu.data  22863364000                       # number of WriteReq MSHR miss cycles
system.cpu.dcache.WriteReq_mshr_miss_latency::total  22863364000                       # number of WriteReq MSHR miss cycles
system.cpu.dcache.demand_mshr_miss_latency::cpu.data 132022094000                       # number of demand (read+write) MSHR miss cycles
system.cpu.dcache.demand_mshr_miss_latency::total 132022094000                       # number of demand (read+write) MSHR miss cycles
system.cpu.dcache.overall_mshr_miss_latency::cpu.data 132022094000                       # number of overall MSHR miss cycles
system.cpu.dcache.overall_mshr_miss_latency::total 132022094000                       # number of overall MSHR miss cycles
system.cpu.dcache.ReadReq_mshr_miss_rate::cpu.data     0.002585                       # mshr miss rate for ReadReq accesses
system.cpu.dcache.ReadReq_mshr_miss_rate::total     0.002585                       # mshr miss rate for ReadReq accesses
system.cpu.dcache.WriteReq_mshr_miss_rate::cpu.data     0.004449                       # mshr miss rate for WriteReq accesses
system.cpu.dcache.WriteReq_mshr_miss_rate::total     0.004449                       # mshr miss rate for WriteReq accesses
system.cpu.dcache.demand_mshr_miss_rate::cpu.data     0.002982                       # mshr miss rate for demand accesses
system.cpu.dcache.demand_mshr_miss_rate::total     0.002982                       # mshr miss rate for demand accesses
system.cpu.dcache.overall_mshr_miss_rate::cpu.data     0.002982                       # mshr miss rate for overall accesses
system.cpu.dcache.overall_mshr_miss_rate::total     0.002982                       # mshr miss rate for overall accesses
system.cpu.dcache.ReadReq_avg_mshr_miss_latency::cpu.data 177214.648789                       # average ReadReq mshr miss latency
system.cpu.dcache.ReadReq_avg_mshr_miss_latency::total 177214.648789                       # average ReadReq mshr miss latency
system.cpu.dcache.WriteReq_avg_mshr_miss_latency::cpu.data 79830.460302                       # average WriteReq mshr miss latency
system.cpu.dcache.WriteReq_avg_mshr_miss_latency::total 79830.460302                       # average WriteReq mshr miss latency
system.cpu.dcache.demand_avg_mshr_miss_latency::cpu.data 146306.267509                       # average overall mshr miss latency
system.cpu.dcache.demand_avg_mshr_miss_latency::total 146306.267509                       # average overall mshr miss latency
system.cpu.dcache.overall_avg_mshr_miss_latency::cpu.data 146306.267509                       # average overall mshr miss latency
system.cpu.dcache.overall_avg_mshr_miss_latency::total 146306.267509                       # average overall mshr miss latency
system.cpu.dcache.replacements                 681933                       # number of replacements
system.cpu.dtb_walker_cache.tags.pwrStateResidencyTicks::UNDEFINED 1112037318000                       # Cumulative time (in ticks) in various power states
system.cpu.dtb_walker_cache.tags.tagsinuse            0                       # Cycle average of tags in use
system.cpu.dtb_walker_cache.tags.total_refs            0                       # Total number of references to valid blocks.
system.cpu.dtb_walker_cache.tags.sampled_refs            0                       # Sample count of references to valid blocks.
system.cpu.dtb_walker_cache.tags.avg_refs          nan                       # Average number of references to valid blocks.
system.cpu.dtb_walker_cache.tags.warmup_cycle            0                       # Cycle when the warmup percentage was hit.
system.cpu.dtb_walker_cache.tags.tag_accesses            0                       # Number of tag accesses
system.cpu.dtb_walker_cache.tags.data_accesses            0                       # Number of data accesses
system.cpu.dtb_walker_cache.pwrStateResidencyTicks::UNDEFINED 1112037318000                       # Cumulative time (in ticks) in various power states
system.cpu.dtb_walker_cache.blocked_cycles::no_mshrs            0                       # number of cycles access was blocked
system.cpu.dtb_walker_cache.blocked_cycles::no_targets            0                       # number of cycles access was blocked
system.cpu.dtb_walker_cache.blocked::no_mshrs            0                       # number of cycles access was blocked
system.cpu.dtb_walker_cache.blocked::no_targets            0                       # number of cycles access was blocked
system.cpu.dtb_walker_cache.avg_blocked_cycles::no_mshrs          nan                       # average number of cycles each access was blocked
system.cpu.dtb_walker_cache.avg_blocked_cycles::no_targets          nan                       # average number of cycles each access was blocked
system.cpu.dtb_walker_cache.replacements            0                       # number of replacements
system.cpu.icache.tags.pwrStateResidencyTicks::UNDEFINED 1112037318000                       # Cumulative time (in ticks) in various power states
system.cpu.icache.tags.tagsinuse           270.733583                       # Cycle average of tags in use
system.cpu.icache.tags.total_refs           677335179                       # Total number of references to valid blocks.
system.cpu.icache.tags.sampled_refs               342                       # Sample count of references to valid blocks.
system.cpu.icache.tags.avg_refs          1980512.219298                       # Average number of references to valid blocks.
system.cpu.icache.tags.warmup_cycle            445000                       # Cycle when the warmup percentage was hit.
system.cpu.icache.tags.occ_blocks::cpu.inst   270.733583                       # Average occupied blocks per requestor
system.cpu.icache.tags.occ_percent::cpu.inst     0.528777                       # Average percentage of cache occupancy
system.cpu.icache.tags.occ_percent::total     0.528777                       # Average percentage of cache occupancy
system.cpu.icache.tags.occ_task_id_blocks::1024          296                       # Occupied blocks per task id
system.cpu.icache.tags.age_task_id_blocks_1024::0           15                       # Occupied blocks per task id
system.cpu.icache.tags.age_task_id_blocks_1024::1           19                       # Occupied blocks per task id
system.cpu.icache.tags.age_task_id_blocks_1024::4          262                       # Occupied blocks per task id
system.cpu.icache.tags.occ_task_id_percent::1024     0.578125                       # Percentage of cache occupancy per task id
system.cpu.icache.tags.tag_accesses        1354670700                       # Number of tag accesses
system.cpu.icache.tags.data_accesses       1354670700                       # Number of data accesses
system.cpu.icache.pwrStateResidencyTicks::UNDEFINED 1112037318000                       # Cumulative time (in ticks) in various power states
system.cpu.icache.ReadReq_hits::cpu.inst    677334837                       # number of ReadReq hits
system.cpu.icache.ReadReq_hits::total       677334837                       # number of ReadReq hits
system.cpu.icache.demand_hits::cpu.inst     677334837                       # number of demand (read+write) hits
system.cpu.icache.demand_hits::total        677334837                       # number of demand (read+write) hits
system.cpu.icache.overall_hits::cpu.inst    677334837                       # number of overall hits
system.cpu.icache.overall_hits::total       677334837                       # number of overall hits
system.cpu.icache.ReadReq_misses::cpu.inst          342                       # number of ReadReq misses
system.cpu.icache.ReadReq_misses::total           342                       # number of ReadReq misses
system.cpu.icache.demand_misses::cpu.inst          342                       # number of demand (read+write) misses
system.cpu.icache.demand_misses::total            342                       # number of demand (read+write) misses
system.cpu.icache.overall_misses::cpu.inst          342                       # number of overall misses
system.cpu.icache.overall_misses::total           342                       # number of overall misses
system.cpu.icache.ReadReq_miss_latency::cpu.inst     59768000                       # number of ReadReq miss cycles
system.cpu.icache.ReadReq_miss_latency::total     59768000                       # number of ReadReq miss cycles
system.cpu.icache.demand_miss_latency::cpu.inst     59768000                       # number of demand (read+write) miss cycles
system.cpu.icache.demand_miss_latency::total     59768000                       # number of demand (read+write) miss cycles
system.cpu.icache.overall_miss_latency::cpu.inst     59768000                       # number of overall miss cycles
system.cpu.icache.overall_miss_latency::total     59768000                       # number of overall miss cycles
system.cpu.icache.ReadReq_accesses::cpu.inst    677335179                       # number of ReadReq accesses(hits+misses)
system.cpu.icache.ReadReq_accesses::total    677335179                       # number of ReadReq accesses(hits+misses)
system.cpu.icache.demand_accesses::cpu.inst    677335179                       # number of demand (read+write) accesses
system.cpu.icache.demand_accesses::total    677335179                       # number of demand (read+write) accesses
system.cpu.icache.overall_accesses::cpu.inst    677335179                       # number of overall (read+write) accesses
system.cpu.icache.overall_accesses::total    677335179                       # number of overall (read+write) accesses
system.cpu.icache.ReadReq_miss_rate::cpu.inst     0.000001                       # miss rate for ReadReq accesses
system.cpu.icache.ReadReq_miss_rate::total     0.000001                       # miss rate for ReadReq accesses
system.cpu.icache.demand_miss_rate::cpu.inst     0.000001                       # miss rate for demand accesses
system.cpu.icache.demand_miss_rate::total     0.000001                       # miss rate for demand accesses
system.cpu.icache.overall_miss_rate::cpu.inst     0.000001                       # miss rate for overall accesses
system.cpu.icache.overall_miss_rate::total     0.000001                       # miss rate for overall accesses
system.cpu.icache.ReadReq_avg_miss_latency::cpu.inst 174760.233918                       # average ReadReq miss latency
system.cpu.icache.ReadReq_avg_miss_latency::total 174760.233918                       # average ReadReq miss latency
system.cpu.icache.demand_avg_miss_latency::cpu.inst 174760.233918                       # average overall miss latency
system.cpu.icache.demand_avg_miss_latency::total 174760.233918                       # average overall miss latency
system.cpu.icache.overall_avg_miss_latency::cpu.inst 174760.233918                       # average overall miss latency
system.cpu.icache.overall_avg_miss_latency::total 174760.233918                       # average overall miss latency
system.cpu.icache.blocked_cycles::no_mshrs            0                       # number of cycles access was blocked
system.cpu.icache.blocked_cycles::no_targets            0                       # number of cycles access was blocked
system.cpu.icache.blocked::no_mshrs                 0                       # number of cycles access was blocked
system.cpu.icache.blocked::no_targets               0                       # number of cycles access was blocked
system.cpu.icache.avg_blocked_cycles::no_mshrs          nan                       # average number of cycles each access was blocked
system.cpu.icache.avg_blocked_cycles::no_targets          nan                       # average number of cycles each access was blocked
system.cpu.icache.writebacks::writebacks           46                       # number of writebacks
system.cpu.icache.writebacks::total                46                       # number of writebacks
system.cpu.icache.ReadReq_mshr_misses::cpu.inst          342                       # number of ReadReq MSHR misses
system.cpu.icache.ReadReq_mshr_misses::total          342                       # number of ReadReq MSHR misses
system.cpu.icache.demand_mshr_misses::cpu.inst          342                       # number of demand (read+write) MSHR misses
system.cpu.icache.demand_mshr_misses::total          342                       # number of demand (read+write) MSHR misses
system.cpu.icache.overall_mshr_misses::cpu.inst          342                       # number of overall MSHR misses
system.cpu.icache.overall_mshr_misses::total          342                       # number of overall MSHR misses
system.cpu.icache.ReadReq_mshr_miss_latency::cpu.inst     59426000                       # number of ReadReq MSHR miss cycles
system.cpu.icache.ReadReq_mshr_miss_latency::total     59426000                       # number of ReadReq MSHR miss cycles
system.cpu.icache.demand_mshr_miss_latency::cpu.inst     59426000                       # number of demand (read+write) MSHR miss cycles
system.cpu.icache.demand_mshr_miss_latency::total     59426000                       # number of demand (read+write) MSHR miss cycles
system.cpu.icache.overall_mshr_miss_latency::cpu.inst     59426000                       # number of overall MSHR miss cycles
system.cpu.icache.overall_mshr_miss_latency::total     59426000                       # number of overall MSHR miss cycles
system.cpu.icache.ReadReq_mshr_miss_rate::cpu.inst     0.000001                       # mshr miss rate for ReadReq accesses
system.cpu.icache.ReadReq_mshr_miss_rate::total     0.000001                       # mshr miss rate for ReadReq accesses
system.cpu.icache.demand_mshr_miss_rate::cpu.inst     0.000001                       # mshr miss rate for demand accesses
system.cpu.icache.demand_mshr_miss_rate::total     0.000001                       # mshr miss rate for demand accesses
system.cpu.icache.overall_mshr_miss_rate::cpu.inst     0.000001                       # mshr miss rate for overall accesses
system.cpu.icache.overall_mshr_miss_rate::total     0.000001                       # mshr miss rate for overall accesses
system.cpu.icache.ReadReq_avg_mshr_miss_latency::cpu.inst 173760.233918                       # average ReadReq mshr miss latency
system.cpu.icache.ReadReq_avg_mshr_miss_latency::total 173760.233918                       # average ReadReq mshr miss latency
system.cpu.icache.demand_avg_mshr_miss_latency::cpu.inst 173760.233918                       # average overall mshr miss latency
system.cpu.icache.demand_avg_mshr_miss_latency::total 173760.233918                       # average overall mshr miss latency
system.cpu.icache.overall_avg_mshr_miss_latency::cpu.inst 173760.233918                       # average overall mshr miss latency
system.cpu.icache.overall_avg_mshr_miss_latency::total 173760.233918                       # average overall mshr miss latency
system.cpu.icache.replacements                     46                       # number of replacements
system.cpu.itb_walker_cache.tags.pwrStateResidencyTicks::UNDEFINED 1112037318000                       # Cumulative time (in ticks) in various power states
system.cpu.itb_walker_cache.tags.tagsinuse            0                       # Cycle average of tags in use
system.cpu.itb_walker_cache.tags.total_refs            0                       # Total number of references to valid blocks.
system.cpu.itb_walker_cache.tags.sampled_refs            0                       # Sample count of references to valid blocks.
system.cpu.itb_walker_cache.tags.avg_refs          nan                       # Average number of references to valid blocks.
system.cpu.itb_walker_cache.tags.warmup_cycle            0                       # Cycle when the warmup percentage was hit.
system.cpu.itb_walker_cache.tags.tag_accesses            0                       # Number of tag accesses
system.cpu.itb_walker_cache.tags.data_accesses            0                       # Number of data accesses
system.cpu.itb_walker_cache.pwrStateResidencyTicks::UNDEFINED 1112037318000                       # Cumulative time (in ticks) in various power states
system.cpu.itb_walker_cache.blocked_cycles::no_mshrs            0                       # number of cycles access was blocked
system.cpu.itb_walker_cache.blocked_cycles::no_targets            0                       # number of cycles access was blocked
system.cpu.itb_walker_cache.blocked::no_mshrs            0                       # number of cycles access was blocked
system.cpu.itb_walker_cache.blocked::no_targets            0                       # number of cycles access was blocked
system.cpu.itb_walker_cache.avg_blocked_cycles::no_mshrs          nan                       # average number of cycles each access was blocked
system.cpu.itb_walker_cache.avg_blocked_cycles::no_targets          nan                       # average number of cycles each access was blocked
system.cpu.itb_walker_cache.replacements            0                       # number of replacements
system.l2.tags.pwrStateResidencyTicks::UNDEFINED 1112037318000                       # Cumulative time (in ticks) in various power states
system.l2.tags.tagsinuse                  2045.594400                       # Cycle average of tags in use
system.l2.tags.total_refs                     1584689                       # Total number of references to valid blocks.
system.l2.tags.sampled_refs                    518822                       # Sample count of references to valid blocks.
system.l2.tags.avg_refs                      3.054398                       # Average number of references to valid blocks.
system.l2.tags.warmup_cycle                    434500                       # Cycle when the warmup percentage was hit.
system.l2.tags.occ_blocks::writebacks        1.006224                       # Average occupied blocks per requestor
system.l2.tags.occ_blocks::cpu.inst          0.905795                       # Average occupied blocks per requestor
system.l2.tags.occ_blocks::cpu.data       2043.682381                       # Average occupied blocks per requestor
system.l2.tags.occ_percent::writebacks       0.000491                       # Average percentage of cache occupancy
system.l2.tags.occ_percent::cpu.inst         0.000442                       # Average percentage of cache occupancy
system.l2.tags.occ_percent::cpu.data         0.997892                       # Average percentage of cache occupancy
system.l2.tags.occ_percent::total            0.998825                       # Average percentage of cache occupancy
system.l2.tags.occ_task_id_blocks::1024          2048                       # Occupied blocks per task id
system.l2.tags.age_task_id_blocks_1024::0           32                       # Occupied blocks per task id
system.l2.tags.age_task_id_blocks_1024::1           40                       # Occupied blocks per task id
system.l2.tags.age_task_id_blocks_1024::3          450                       # Occupied blocks per task id
system.l2.tags.age_task_id_blocks_1024::4         1526                       # Occupied blocks per task id
system.l2.tags.occ_task_id_percent::1024            1                       # Percentage of cache occupancy per task id
system.l2.tags.tag_accesses                  13196334                       # Number of tag accesses
system.l2.tags.data_accesses                 13196334                       # Number of data accesses
system.l2.pwrStateResidencyTicks::UNDEFINED 1112037318000                       # Cumulative time (in ticks) in various power states
system.l2.WritebackDirty_hits::writebacks       657325                       # number of WritebackDirty hits
system.l2.WritebackDirty_hits::total           657325                       # number of WritebackDirty hits
system.l2.WritebackClean_hits::writebacks           46                       # number of WritebackClean hits
system.l2.WritebackClean_hits::total               46                       # number of WritebackClean hits
system.l2.UpgradeReq_hits::cpu.data            219923                       # number of UpgradeReq hits
system.l2.UpgradeReq_hits::total               219923                       # number of UpgradeReq hits
system.l2.ReadExReq_hits::cpu.data               3040                       # number of ReadExReq hits
system.l2.ReadExReq_hits::total                  3040                       # number of ReadExReq hits
system.l2.ReadSharedReq_hits::cpu.data         161026                       # number of ReadSharedReq hits
system.l2.ReadSharedReq_hits::total            161026                       # number of ReadSharedReq hits
system.l2.demand_hits::cpu.data                164066                       # number of demand (read+write) hits
system.l2.demand_hits::total                   164066                       # number of demand (read+write) hits
system.l2.overall_hits::cpu.data               164066                       # number of overall hits
system.l2.overall_hits::total                  164066                       # number of overall hits
system.l2.ReadExReq_misses::cpu.data            63436                       # number of ReadExReq misses
system.l2.ReadExReq_misses::total               63436                       # number of ReadExReq misses
system.l2.ReadCleanReq_misses::cpu.inst           342                       # number of ReadCleanReq misses
system.l2.ReadCleanReq_misses::total              342                       # number of ReadCleanReq misses
system.l2.ReadSharedReq_misses::cpu.data       454943                       # number of ReadSharedReq misses
system.l2.ReadSharedReq_misses::total          454943                       # number of ReadSharedReq misses
system.l2.demand_misses::cpu.inst                 342                       # number of demand (read+write) misses
system.l2.demand_misses::cpu.data              518379                       # number of demand (read+write) misses
system.l2.demand_misses::total                 518721                       # number of demand (read+write) misses
system.l2.overall_misses::cpu.inst                342                       # number of overall misses
system.l2.overall_misses::cpu.data             518379                       # number of overall misses
system.l2.overall_misses::total                518721                       # number of overall misses
system.l2.ReadExReq_miss_latency::cpu.data  20092653500                       # number of ReadExReq miss cycles
system.l2.ReadExReq_miss_latency::total   20092653500                       # number of ReadExReq miss cycles
system.l2.ReadCleanReq_miss_latency::cpu.inst     58912500                       # number of ReadCleanReq miss cycles
system.l2.ReadCleanReq_miss_latency::total     58912500                       # number of ReadCleanReq miss cycles
system.l2.ReadSharedReq_miss_latency::cpu.data 106544002500                       # number of ReadSharedReq miss cycles
system.l2.ReadSharedReq_miss_latency::total 106544002500                       # number of ReadSharedReq miss cycles
system.l2.demand_miss_latency::cpu.inst      58912500                       # number of demand (read+write) miss cycles
system.l2.demand_miss_latency::cpu.data  126636656000                       # number of demand (read+write) miss cycles
system.l2.demand_miss_latency::total     126695568500                       # number of demand (read+write) miss cycles
system.l2.overall_miss_latency::cpu.inst     58912500                       # number of overall miss cycles
system.l2.overall_miss_latency::cpu.data 126636656000                       # number of overall miss cycles
system.l2.overall_miss_latency::total    126695568500                       # number of overall miss cycles
system.l2.WritebackDirty_accesses::writebacks       657325                       # number of WritebackDirty accesses(hits+misses)
system.l2.WritebackDirty_accesses::total       657325                       # number of WritebackDirty accesses(hits+misses)
system.l2.WritebackClean_accesses::writebacks           46                       # number of WritebackClean accesses(hits+misses)
system.l2.WritebackClean_accesses::total           46                       # number of WritebackClean accesses(hits+misses)
system.l2.UpgradeReq_accesses::cpu.data        219923                       # number of UpgradeReq accesses(hits+misses)
system.l2.UpgradeReq_accesses::total           219923                       # number of UpgradeReq accesses(hits+misses)
system.l2.ReadExReq_accesses::cpu.data          66476                       # number of ReadExReq accesses(hits+misses)
system.l2.ReadExReq_accesses::total             66476                       # number of ReadExReq accesses(hits+misses)
system.l2.ReadCleanReq_accesses::cpu.inst          342                       # number of ReadCleanReq accesses(hits+misses)
system.l2.ReadCleanReq_accesses::total            342                       # number of ReadCleanReq accesses(hits+misses)
system.l2.ReadSharedReq_accesses::cpu.data       615969                       # number of ReadSharedReq accesses(hits+misses)
system.l2.ReadSharedReq_accesses::total        615969                       # number of ReadSharedReq accesses(hits+misses)
system.l2.demand_accesses::cpu.inst               342                       # number of demand (read+write) accesses
system.l2.demand_accesses::cpu.data            682445                       # number of demand (read+write) accesses
system.l2.demand_accesses::total               682787                       # number of demand (read+write) accesses
system.l2.overall_accesses::cpu.inst              342                       # number of overall (read+write) accesses
system.l2.overall_accesses::cpu.data           682445                       # number of overall (read+write) accesses
system.l2.overall_accesses::total              682787                       # number of overall (read+write) accesses
system.l2.ReadExReq_miss_rate::cpu.data      0.954269                       # miss rate for ReadExReq accesses
system.l2.ReadExReq_miss_rate::total         0.954269                       # miss rate for ReadExReq accesses
system.l2.ReadCleanReq_miss_rate::cpu.inst            1                       # miss rate for ReadCleanReq accesses
system.l2.ReadCleanReq_miss_rate::total             1                       # miss rate for ReadCleanReq accesses
system.l2.ReadSharedReq_miss_rate::cpu.data     0.738581                       # miss rate for ReadSharedReq accesses
system.l2.ReadSharedReq_miss_rate::total     0.738581                       # miss rate for ReadSharedReq accesses
system.l2.demand_miss_rate::cpu.inst                1                       # miss rate for demand accesses
system.l2.demand_miss_rate::cpu.data         0.759591                       # miss rate for demand accesses
system.l2.demand_miss_rate::total            0.759711                       # miss rate for demand accesses
system.l2.overall_miss_rate::cpu.inst               1                       # miss rate for overall accesses
system.l2.overall_miss_rate::cpu.data        0.759591                       # miss rate for overall accesses
system.l2.overall_miss_rate::total           0.759711                       # miss rate for overall accesses
system.l2.ReadExReq_avg_miss_latency::cpu.data 316738.973138                       # average ReadExReq miss latency
system.l2.ReadExReq_avg_miss_latency::total 316738.973138                       # average ReadExReq miss latency
system.l2.ReadCleanReq_avg_miss_latency::cpu.inst 172258.771930                       # average ReadCleanReq miss latency
system.l2.ReadCleanReq_avg_miss_latency::total 172258.771930                       # average ReadCleanReq miss latency
system.l2.ReadSharedReq_avg_miss_latency::cpu.data 234191.981193                       # average ReadSharedReq miss latency
system.l2.ReadSharedReq_avg_miss_latency::total 234191.981193                       # average ReadSharedReq miss latency
system.l2.demand_avg_miss_latency::cpu.inst 172258.771930                       # average overall miss latency
system.l2.demand_avg_miss_latency::cpu.data 244293.568991                       # average overall miss latency
system.l2.demand_avg_miss_latency::total 244246.075443                       # average overall miss latency
system.l2.overall_avg_miss_latency::cpu.inst 172258.771930                       # average overall miss latency
system.l2.overall_avg_miss_latency::cpu.data 244293.568991                       # average overall miss latency
system.l2.overall_avg_miss_latency::total 244246.075443                       # average overall miss latency
system.l2.blocked_cycles::no_mshrs                  0                       # number of cycles access was blocked
system.l2.blocked_cycles::no_targets                0                       # number of cycles access was blocked
system.l2.blocked::no_mshrs                         0                       # number of cycles access was blocked
system.l2.blocked::no_targets                       0                       # number of cycles access was blocked
system.l2.avg_blocked_cycles::no_mshrs            nan                       # average number of cycles each access was blocked
system.l2.avg_blocked_cycles::no_targets          nan                       # average number of cycles each access was blocked
system.l2.writebacks::writebacks               508315                       # number of writebacks
system.l2.writebacks::total                    508315                       # number of writebacks
system.l2.ReadExReq_mshr_misses::cpu.data        63436                       # number of ReadExReq MSHR misses
system.l2.ReadExReq_mshr_misses::total          63436                       # number of ReadExReq MSHR misses
system.l2.ReadCleanReq_mshr_misses::cpu.inst          342                       # number of ReadCleanReq MSHR misses
system.l2.ReadCleanReq_mshr_misses::total          342                       # number of ReadCleanReq MSHR misses
system.l2.ReadSharedReq_mshr_misses::cpu.data       454943                       # number of ReadSharedReq MSHR misses
system.l2.ReadSharedReq_mshr_misses::total       454943                       # number of ReadSharedReq MSHR misses
system.l2.demand_mshr_misses::cpu.inst            342                       # number of demand (read+write) MSHR misses
system.l2.demand_mshr_misses::cpu.data         518379                       # number of demand (read+write) MSHR misses
system.l2.demand_mshr_misses::total            518721                       # number of demand (read+write) MSHR misses
system.l2.overall_mshr_misses::cpu.inst           342                       # number of overall MSHR misses
system.l2.overall_mshr_misses::cpu.data        518379                       # number of overall MSHR misses
system.l2.overall_mshr_misses::total           518721                       # number of overall MSHR misses
system.l2.ReadExReq_mshr_miss_latency::cpu.data  19458293500                       # number of ReadExReq MSHR miss cycles
system.l2.ReadExReq_mshr_miss_latency::total  19458293500                       # number of ReadExReq MSHR miss cycles
system.l2.ReadCleanReq_mshr_miss_latency::cpu.inst     55492500                       # number of ReadCleanReq MSHR miss cycles
system.l2.ReadCleanReq_mshr_miss_latency::total     55492500                       # number of ReadCleanReq MSHR miss cycles
system.l2.ReadSharedReq_mshr_miss_latency::cpu.data 101994572500                       # number of ReadSharedReq MSHR miss cycles
system.l2.ReadSharedReq_mshr_miss_latency::total 101994572500                       # number of ReadSharedReq MSHR miss cycles
system.l2.demand_mshr_miss_latency::cpu.inst     55492500                       # number of demand (read+write) MSHR miss cycles
system.l2.demand_mshr_miss_latency::cpu.data 121452866000                       # number of demand (read+write) MSHR miss cycles
system.l2.demand_mshr_miss_latency::total 121508358500                       # number of demand (read+write) MSHR miss cycles
system.l2.overall_mshr_miss_latency::cpu.inst     55492500                       # number of overall MSHR miss cycles
system.l2.overall_mshr_miss_latency::cpu.data 121452866000                       # number of overall MSHR miss cycles
system.l2.overall_mshr_miss_latency::total 121508358500                       # number of overall MSHR miss cycles
system.l2.ReadExReq_mshr_miss_rate::cpu.data     0.954269                       # mshr miss rate for ReadExReq accesses
system.l2.ReadExReq_mshr_miss_rate::total     0.954269                       # mshr miss rate for ReadExReq accesses
system.l2.ReadCleanReq_mshr_miss_rate::cpu.inst            1                       # mshr miss rate for ReadCleanReq accesses
system.l2.ReadCleanReq_mshr_miss_rate::total            1                       # mshr miss rate for ReadCleanReq accesses
system.l2.ReadSharedReq_mshr_miss_rate::cpu.data     0.738581                       # mshr miss rate for ReadSharedReq accesses
system.l2.ReadSharedReq_mshr_miss_rate::total     0.738581                       # mshr miss rate for ReadSharedReq accesses
system.l2.demand_mshr_miss_rate::cpu.inst            1                       # mshr miss rate for demand accesses
system.l2.demand_mshr_miss_rate::cpu.data     0.759591                       # mshr miss rate for demand accesses
system.l2.demand_mshr_miss_rate::total       0.759711                       # mshr miss rate for demand accesses
system.l2.overall_mshr_miss_rate::cpu.inst            1                       # mshr miss rate for overall accesses
system.l2.overall_mshr_miss_rate::cpu.data     0.759591                       # mshr miss rate for overall accesses
system.l2.overall_mshr_miss_rate::total      0.759711                       # mshr miss rate for overall accesses
system.l2.ReadExReq_avg_mshr_miss_latency::cpu.data 306738.973138                       # average ReadExReq mshr miss latency
system.l2.ReadExReq_avg_mshr_miss_latency::total 306738.973138                       # average ReadExReq mshr miss latency
system.l2.ReadCleanReq_avg_mshr_miss_latency::cpu.inst 162258.771930                       # average ReadCleanReq mshr miss latency
system.l2.ReadCleanReq_avg_mshr_miss_latency::total 162258.771930                       # average ReadCleanReq mshr miss latency
system.l2.ReadSharedReq_avg_mshr_miss_latency::cpu.data 224191.981193                       # average ReadSharedReq mshr miss latency
system.l2.ReadSharedReq_avg_mshr_miss_latency::total 224191.981193                       # average ReadSharedReq mshr miss latency
system.l2.demand_avg_mshr_miss_latency::cpu.inst 162258.771930                       # average overall mshr miss latency
system.l2.demand_avg_mshr_miss_latency::cpu.data 234293.568991                       # average overall mshr miss latency
system.l2.demand_avg_mshr_miss_latency::total 234246.075443                       # average overall mshr miss latency
system.l2.overall_avg_mshr_miss_latency::cpu.inst 162258.771930                       # average overall mshr miss latency
system.l2.overall_avg_mshr_miss_latency::cpu.data 234293.568991                       # average overall mshr miss latency
system.l2.overall_avg_mshr_miss_latency::total 234246.075443                       # average overall mshr miss latency
system.l2.replacements                         516774                       # number of replacements
system.l3.tags.pwrStateResidencyTicks::UNDEFINED 1112037318000                       # Cumulative time (in ticks) in various power states
system.l3.tags.tagsinuse                 16151.945766                       # Cycle average of tags in use
system.l3.tags.total_refs                     1035129                       # Total number of references to valid blocks.
system.l3.tags.sampled_refs                    280108                       # Sample count of references to valid blocks.
system.l3.tags.avg_refs                      3.695464                       # Average number of references to valid blocks.
system.l3.tags.warmup_cycle                    418000                       # Cycle when the warmup percentage was hit.
system.l3.tags.occ_blocks::writebacks        1.296534                       # Average occupied blocks per requestor
system.l3.tags.occ_blocks::cpu.inst          6.466770                       # Average occupied blocks per requestor
system.l3.tags.occ_blocks::cpu.data      16144.182462                       # Average occupied blocks per requestor
system.l3.tags.occ_percent::writebacks       0.000079                       # Average percentage of cache occupancy
system.l3.tags.occ_percent::cpu.inst         0.000395                       # Average percentage of cache occupancy
system.l3.tags.occ_percent::cpu.data         0.985363                       # Average percentage of cache occupancy
system.l3.tags.occ_percent::total            0.985837                       # Average percentage of cache occupancy
system.l3.tags.occ_task_id_blocks::1024         16384                       # Occupied blocks per task id
system.l3.tags.age_task_id_blocks_1024::0           26                       # Occupied blocks per task id
system.l3.tags.age_task_id_blocks_1024::1           35                       # Occupied blocks per task id
system.l3.tags.age_task_id_blocks_1024::4        16323                       # Occupied blocks per task id
system.l3.tags.occ_task_id_percent::1024            1                       # Percentage of cache occupancy per task id
system.l3.tags.tag_accesses                   2350370                       # Number of tag accesses
system.l3.tags.data_accesses                  2350370                       # Number of data accesses
system.l3.pwrStateResidencyTicks::UNDEFINED 1112037318000                       # Cumulative time (in ticks) in various power states
system.l3.WritebackDirty_hits::writebacks       508314                       # number of WritebackDirty hits
system.l3.WritebackDirty_hits::total           508314                       # number of WritebackDirty hits
system.l3.ReadExReq_hits::cpu.data                664                       # number of ReadExReq hits
system.l3.ReadExReq_hits::total                   664                       # number of ReadExReq hits
system.l3.ReadSharedReq_hits::cpu.data         237966                       # number of ReadSharedReq hits
system.l3.ReadSharedReq_hits::total            237966                       # number of ReadSharedReq hits
system.l3.demand_hits::cpu.data                238630                       # number of demand (read+write) hits
system.l3.demand_hits::total                   238630                       # number of demand (read+write) hits
system.l3.overall_hits::cpu.data               238630                       # number of overall hits
system.l3.overall_hits::total                  238630                       # number of overall hits
system.l3.ReadExReq_misses::cpu.data            62772                       # number of ReadExReq misses
system.l3.ReadExReq_misses::total               62772                       # number of ReadExReq misses
system.l3.ReadSharedReq_misses::cpu.inst          342                       # number of ReadSharedReq misses
system.l3.ReadSharedReq_misses::cpu.data       216977                       # number of ReadSharedReq misses
system.l3.ReadSharedReq_misses::total          217319                       # number of ReadSharedReq misses
system.l3.demand_misses::cpu.inst                 342                       # number of demand (read+write) misses
system.l3.demand_misses::cpu.data              279749                       # number of demand (read+write) misses
system.l3.demand_misses::total                 280091                       # number of demand (read+write) misses
system.l3.overall_misses::cpu.inst                342                       # number of overall misses
system.l3.overall_misses::cpu.data             279749                       # number of overall misses
system.l3.overall_misses::total                280091                       # number of overall misses
system.l3.ReadExReq_miss_latency::cpu.data  18749541500                       # number of ReadExReq miss cycles
system.l3.ReadExReq_miss_latency::total   18749541500                       # number of ReadExReq miss cycles
system.l3.ReadSharedReq_miss_latency::cpu.inst     51730500                       # number of ReadSharedReq miss cycles
system.l3.ReadSharedReq_miss_latency::cpu.data  93063760500                       # number of ReadSharedReq miss cycles
system.l3.ReadSharedReq_miss_latency::total  93115491000                       # number of ReadSharedReq miss cycles
system.l3.demand_miss_latency::cpu.inst      51730500                       # number of demand (read+write) miss cycles
system.l3.demand_miss_latency::cpu.data  111813302000                       # number of demand (read+write) miss cycles
system.l3.demand_miss_latency::total     111865032500                       # number of demand (read+write) miss cycles
system.l3.overall_miss_latency::cpu.inst     51730500                       # number of overall miss cycles
system.l3.overall_miss_latency::cpu.data 111813302000                       # number of overall miss cycles
system.l3.overall_miss_latency::total    111865032500                       # number of overall miss cycles
system.l3.WritebackDirty_accesses::writebacks       508314                       # number of WritebackDirty accesses(hits+misses)
system.l3.WritebackDirty_accesses::total       508314                       # number of WritebackDirty accesses(hits+misses)
system.l3.ReadExReq_accesses::cpu.data          63436                       # number of ReadExReq accesses(hits+misses)
system.l3.ReadExReq_accesses::total             63436                       # number of ReadExReq accesses(hits+misses)
system.l3.ReadSharedReq_accesses::cpu.inst          342                       # number of ReadSharedReq accesses(hits+misses)
system.l3.ReadSharedReq_accesses::cpu.data       454943                       # number of ReadSharedReq accesses(hits+misses)
system.l3.ReadSharedReq_accesses::total        455285                       # number of ReadSharedReq accesses(hits+misses)
system.l3.demand_accesses::cpu.inst               342                       # number of demand (read+write) accesses
system.l3.demand_accesses::cpu.data            518379                       # number of demand (read+write) accesses
system.l3.demand_accesses::total               518721                       # number of demand (read+write) accesses
system.l3.overall_accesses::cpu.inst              342                       # number of overall (read+write) accesses
system.l3.overall_accesses::cpu.data           518379                       # number of overall (read+write) accesses
system.l3.overall_accesses::total              518721                       # number of overall (read+write) accesses
system.l3.ReadExReq_miss_rate::cpu.data      0.989533                       # miss rate for ReadExReq accesses
system.l3.ReadExReq_miss_rate::total         0.989533                       # miss rate for ReadExReq accesses
system.l3.ReadSharedReq_miss_rate::cpu.inst            1                       # miss rate for ReadSharedReq accesses
system.l3.ReadSharedReq_miss_rate::cpu.data     0.476932                       # miss rate for ReadSharedReq accesses
system.l3.ReadSharedReq_miss_rate::total     0.477325                       # miss rate for ReadSharedReq accesses
system.l3.demand_miss_rate::cpu.inst                1                       # miss rate for demand accesses
system.l3.demand_miss_rate::cpu.data         0.539661                       # miss rate for demand accesses
system.l3.demand_miss_rate::total            0.539965                       # miss rate for demand accesses
system.l3.overall_miss_rate::cpu.inst               1                       # miss rate for overall accesses
system.l3.overall_miss_rate::cpu.data        0.539661                       # miss rate for overall accesses
system.l3.overall_miss_rate::total           0.539965                       # miss rate for overall accesses
system.l3.ReadExReq_avg_miss_latency::cpu.data 298692.753138                       # average ReadExReq miss latency
system.l3.ReadExReq_avg_miss_latency::total 298692.753138                       # average ReadExReq miss latency
system.l3.ReadSharedReq_avg_miss_latency::cpu.inst 151258.771930                       # average ReadSharedReq miss latency
system.l3.ReadSharedReq_avg_miss_latency::cpu.data 428910.716343                       # average ReadSharedReq miss latency
system.l3.ReadSharedReq_avg_miss_latency::total 428473.768976                       # average ReadSharedReq miss latency
system.l3.demand_avg_miss_latency::cpu.inst 151258.771930                       # average overall miss latency
system.l3.demand_avg_miss_latency::cpu.data 399691.516324                       # average overall miss latency
system.l3.demand_avg_miss_latency::total 399388.172058                       # average overall miss latency
system.l3.overall_avg_miss_latency::cpu.inst 151258.771930                       # average overall miss latency
system.l3.overall_avg_miss_latency::cpu.data 399691.516324                       # average overall miss latency
system.l3.overall_avg_miss_latency::total 399388.172058                       # average overall miss latency
system.l3.blocked_cycles::no_mshrs                  0                       # number of cycles access was blocked
system.l3.blocked_cycles::no_targets                0                       # number of cycles access was blocked
system.l3.blocked::no_mshrs                         0                       # number of cycles access was blocked
system.l3.blocked::no_targets                       0                       # number of cycles access was blocked
system.l3.avg_blocked_cycles::no_mshrs            nan                       # average number of cycles each access was blocked
system.l3.avg_blocked_cycles::no_targets          nan                       # average number of cycles each access was blocked
system.l3.writebacks::writebacks               256938                       # number of writebacks
system.l3.writebacks::total                    256938                       # number of writebacks
system.l3.CleanEvict_mshr_misses::writebacks            2                       # number of CleanEvict MSHR misses
system.l3.CleanEvict_mshr_misses::total             2                       # number of CleanEvict MSHR misses
system.l3.ReadExReq_mshr_misses::cpu.data        62772                       # number of ReadExReq MSHR misses
system.l3.ReadExReq_mshr_misses::total          62772                       # number of ReadExReq MSHR misses
system.l3.ReadSharedReq_mshr_misses::cpu.inst          342                       # number of ReadSharedReq MSHR misses
system.l3.ReadSharedReq_mshr_misses::cpu.data       216977                       # number of ReadSharedReq MSHR misses
system.l3.ReadSharedReq_mshr_misses::total       217319                       # number of ReadSharedReq MSHR misses
system.l3.demand_mshr_misses::cpu.inst            342                       # number of demand (read+write) MSHR misses
system.l3.demand_mshr_misses::cpu.data         279749                       # number of demand (read+write) MSHR misses
system.l3.demand_mshr_misses::total            280091                       # number of demand (read+write) MSHR misses
system.l3.overall_mshr_misses::cpu.inst           342                       # number of overall MSHR misses
system.l3.overall_mshr_misses::cpu.data        279749                       # number of overall MSHR misses
system.l3.overall_mshr_misses::total           280091                       # number of overall MSHR misses
system.l3.ReadExReq_mshr_miss_latency::cpu.data  17745189500                       # number of ReadExReq MSHR miss cycles
system.l3.ReadExReq_mshr_miss_latency::total  17745189500                       # number of ReadExReq MSHR miss cycles
system.l3.ReadSharedReq_mshr_miss_latency::cpu.inst     46258500                       # number of ReadSharedReq MSHR miss cycles
system.l3.ReadSharedReq_mshr_miss_latency::cpu.data  89592128500                       # number of ReadSharedReq MSHR miss cycles
system.l3.ReadSharedReq_mshr_miss_latency::total  89638387000                       # number of ReadSharedReq MSHR miss cycles
system.l3.demand_mshr_miss_latency::cpu.inst     46258500                       # number of demand (read+write) MSHR miss cycles
system.l3.demand_mshr_miss_latency::cpu.data 107337318000                       # number of demand (read+write) MSHR miss cycles
system.l3.demand_mshr_miss_latency::total 107383576500                       # number of demand (read+write) MSHR miss cycles
system.l3.overall_mshr_miss_latency::cpu.inst     46258500                       # number of overall MSHR miss cycles
system.l3.overall_mshr_miss_latency::cpu.data 107337318000                       # number of overall MSHR miss cycles
system.l3.overall_mshr_miss_latency::total 107383576500                       # number of overall MSHR miss cycles
system.l3.CleanEvict_mshr_miss_rate::writebacks          inf                       # mshr miss rate for CleanEvict accesses
system.l3.CleanEvict_mshr_miss_rate::total          inf                       # mshr miss rate for CleanEvict accesses
system.l3.ReadExReq_mshr_miss_rate::cpu.data     0.989533                       # mshr miss rate for ReadExReq accesses
system.l3.ReadExReq_mshr_miss_rate::total     0.989533                       # mshr miss rate for ReadExReq accesses
system.l3.ReadSharedReq_mshr_miss_rate::cpu.inst            1                       # mshr miss rate for ReadSharedReq accesses
system.l3.ReadSharedReq_mshr_miss_rate::cpu.data     0.476932                       # mshr miss rate for ReadSharedReq accesses
system.l3.ReadSharedReq_mshr_miss_rate::total     0.477325                       # mshr miss rate for ReadSharedReq accesses
system.l3.demand_mshr_miss_rate::cpu.inst            1                       # mshr miss rate for demand accesses
system.l3.demand_mshr_miss_rate::cpu.data     0.539661                       # mshr miss rate for demand accesses
system.l3.demand_mshr_miss_rate::total       0.539965                       # mshr miss rate for demand accesses
system.l3.overall_mshr_miss_rate::cpu.inst            1                       # mshr miss rate for overall accesses
system.l3.overall_mshr_miss_rate::cpu.data     0.539661                       # mshr miss rate for overall accesses
system.l3.overall_mshr_miss_rate::total      0.539965                       # mshr miss rate for overall accesses
system.l3.ReadExReq_avg_mshr_miss_latency::cpu.data 282692.753138                       # average ReadExReq mshr miss latency
system.l3.ReadExReq_avg_mshr_miss_latency::total 282692.753138                       # average ReadExReq mshr miss latency
system.l3.ReadSharedReq_avg_mshr_miss_latency::cpu.inst 135258.771930                       # average ReadSharedReq mshr miss latency
system.l3.ReadSharedReq_avg_mshr_miss_latency::cpu.data 412910.716343                       # average ReadSharedReq mshr miss latency
system.l3.ReadSharedReq_avg_mshr_miss_latency::total 412473.768976                       # average ReadSharedReq mshr miss latency
system.l3.demand_avg_mshr_miss_latency::cpu.inst 135258.771930                       # average overall mshr miss latency
system.l3.demand_avg_mshr_miss_latency::cpu.data 383691.516324                       # average overall mshr miss latency
system.l3.demand_avg_mshr_miss_latency::total 383388.172058                       # average overall mshr miss latency
system.l3.overall_avg_mshr_miss_latency::cpu.inst 135258.771930                       # average overall mshr miss latency
system.l3.overall_avg_mshr_miss_latency::cpu.data 383691.516324                       # average overall mshr miss latency
system.l3.overall_avg_mshr_miss_latency::total 383388.172058                       # average overall mshr miss latency
system.l3.replacements                         263724                       # number of replacements
system.membus.snoop_filter.tot_requests        543558                       # Total number of requests made to the snoop filter.
system.membus.snoop_filter.hit_single_requests       263467                       # Number of requests hitting in the snoop filter with a single holder of the requested data.
system.membus.snoop_filter.hit_multi_requests            0                       # Number of requests hitting in the snoop filter with multiple (>1) holders of the requested data.
system.membus.snoop_filter.tot_snoops               0                       # Total number of snoops made to the snoop filter.
system.membus.snoop_filter.hit_single_snoops            0                       # Number of snoops hitting in the snoop filter with a single holder of the requested data.
system.membus.snoop_filter.hit_multi_snoops            0                       # Number of snoops hitting in the snoop filter with multiple (>1) holders of the requested data.
system.membus.pwrStateResidencyTicks::UNDEFINED 1112037318000                       # Cumulative time (in ticks) in various power states
system.membus.trans_dist::ReadResp             217319                       # Transaction distribution
system.membus.trans_dist::WritebackDirty       256938                       # Transaction distribution
system.membus.trans_dist::CleanEvict             6498                       # Transaction distribution
system.membus.trans_dist::ReadExReq             62772                       # Transaction distribution
system.membus.trans_dist::ReadExResp            62772                       # Transaction distribution
system.membus.trans_dist::ReadSharedReq        217319                       # Transaction distribution
system.membus.pkt_count_system.l3.mem_side::system.mem_ctrls.port       823618                       # Packet count per connected master and slave (bytes)
system.membus.pkt_count_system.l3.mem_side::total       823618                       # Packet count per connected master and slave (bytes)
system.membus.pkt_count::total                 823618                       # Packet count per connected master and slave (bytes)
system.membus.pkt_size_system.l3.mem_side::system.mem_ctrls.port     34369856                       # Cumulative packet size per connected master and slave (bytes)
system.membus.pkt_size_system.l3.mem_side::total     34369856                       # Cumulative packet size per connected master and slave (bytes)
system.membus.pkt_size::total                34369856                       # Cumulative packet size per connected master and slave (bytes)
system.membus.snoops                                0                       # Total snoops (count)
system.membus.snoopTraffic                          0                       # Total snoop traffic (bytes)
system.membus.snoop_fanout::samples            280091                       # Request fanout histogram
system.membus.snoop_fanout::mean                    0                       # Request fanout histogram
system.membus.snoop_fanout::stdev                   0                       # Request fanout histogram
system.membus.snoop_fanout::underflows              0      0.00%      0.00% # Request fanout histogram
system.membus.snoop_fanout::0                  280091    100.00%    100.00% # Request fanout histogram
system.membus.snoop_fanout::1                       0      0.00%    100.00% # Request fanout histogram
system.membus.snoop_fanout::overflows               0      0.00%    100.00% # Request fanout histogram
system.membus.snoop_fanout::min_value               0                       # Request fanout histogram
system.membus.snoop_fanout::max_value               0                       # Request fanout histogram
system.membus.snoop_fanout::total              280091                       # Request fanout histogram
system.membus.reqLayer2.occupancy          1571312000                       # Layer occupancy (ticks)
system.membus.reqLayer2.utilization               0.1                       # Layer utilization (%)
system.membus.respLayer1.occupancy         1400457000                       # Layer occupancy (ticks)
system.membus.respLayer1.utilization              0.1                       # Layer utilization (%)
system.tol2bus.snoop_filter.tot_requests      1584689                       # Total number of requests made to the snoop filter.
system.tol2bus.snoop_filter.hit_single_requests       901902                       # Number of requests hitting in the snoop filter with a single holder of the requested data.
system.tol2bus.snoop_filter.hit_multi_requests            0                       # Number of requests hitting in the snoop filter with multiple (>1) holders of the requested data.
system.tol2bus.snoop_filter.tot_snoops            653                       # Total number of snoops made to the snoop filter.
system.tol2bus.snoop_filter.hit_single_snoops          653                       # Number of snoops hitting in the snoop filter with a single holder of the requested data.
system.tol2bus.snoop_filter.hit_multi_snoops            0                       # Number of snoops hitting in the snoop filter with multiple (>1) holders of the requested data.
system.tol2bus.pwrStateResidencyTicks::UNDEFINED 1112037318000                       # Cumulative time (in ticks) in various power states
system.tol2bus.trans_dist::ReadResp            616311                       # Transaction distribution
system.tol2bus.trans_dist::WritebackDirty      1165640                       # Transaction distribution
system.tol2bus.trans_dist::WritebackClean           46                       # Transaction distribution
system.tol2bus.trans_dist::CleanEvict           33357                       # Transaction distribution
system.tol2bus.trans_dist::UpgradeReq          219923                       # Transaction distribution
system.tol2bus.trans_dist::UpgradeResp         219923                       # Transaction distribution
system.tol2bus.trans_dist::ReadExReq            66476                       # Transaction distribution
system.tol2bus.trans_dist::ReadExResp           66476                       # Transaction distribution
system.tol2bus.trans_dist::ReadCleanReq           342                       # Transaction distribution
system.tol2bus.trans_dist::ReadSharedReq       615969                       # Transaction distribution
system.tol2bus.pkt_count_system.cpu.icache.mem_side::system.l2.cpu_side          730                       # Packet count per connected master and slave (bytes)
system.tol2bus.pkt_count_system.cpu.dcache.mem_side::system.l2.cpu_side      2486669                       # Packet count per connected master and slave (bytes)
system.tol2bus.pkt_count::total               2487399                       # Packet count per connected master and slave (bytes)
system.tol2bus.pkt_size_system.cpu.icache.mem_side::system.l2.cpu_side        24832                       # Cumulative packet size per connected master and slave (bytes)
system.tol2bus.pkt_size_system.cpu.dcache.mem_side::system.l2.cpu_side     85745280                       # Cumulative packet size per connected master and slave (bytes)
system.tol2bus.pkt_size::total               85770112                       # Cumulative packet size per connected master and slave (bytes)
system.tol2bus.snoops                          517064                       # Total snoops (count)
system.tol2bus.snoopTraffic                  32532160                       # Total snoop traffic (bytes)
system.tol2bus.snoop_fanout::samples          1419774                       # Request fanout histogram
system.tol2bus.snoop_fanout::mean            0.000460                       # Request fanout histogram
system.tol2bus.snoop_fanout::stdev           0.021441                       # Request fanout histogram
system.tol2bus.snoop_fanout::underflows             0      0.00%      0.00% # Request fanout histogram
system.tol2bus.snoop_fanout::0                1419121     99.95%     99.95% # Request fanout histogram
system.tol2bus.snoop_fanout::1                    653      0.05%    100.00% # Request fanout histogram
system.tol2bus.snoop_fanout::2                      0      0.00%    100.00% # Request fanout histogram
system.tol2bus.snoop_fanout::3                      0      0.00%    100.00% # Request fanout histogram
system.tol2bus.snoop_fanout::4                      0      0.00%    100.00% # Request fanout histogram
system.tol2bus.snoop_fanout::overflows              0      0.00%    100.00% # Request fanout histogram
system.tol2bus.snoop_fanout::min_value              0                       # Request fanout histogram
system.tol2bus.snoop_fanout::max_value              1                       # Request fanout histogram
system.tol2bus.snoop_fanout::total            1419774                       # Request fanout histogram
system.tol2bus.reqLayer0.occupancy         1449715500                       # Layer occupancy (ticks)
system.tol2bus.reqLayer0.utilization              0.1                       # Layer utilization (%)
system.tol2bus.respLayer0.occupancy            513000                       # Layer occupancy (ticks)
system.tol2bus.respLayer0.utilization             0.0                       # Layer utilization (%)
system.tol2bus.respLayer1.occupancy        1133629000                       # Layer occupancy (ticks)
system.tol2bus.respLayer1.utilization             0.1                       # Layer utilization (%)
system.tol3bus.snoop_filter.tot_requests      1035131                       # Total number of requests made to the snoop filter.
system.tol3bus.snoop_filter.hit_single_requests       516410                       # Number of requests hitting in the snoop filter with a single holder of the requested data.
system.tol3bus.snoop_filter.hit_multi_requests            0                       # Number of requests hitting in the snoop filter with multiple (>1) holders of the requested data.
system.tol3bus.snoop_filter.tot_snoops            290                       # Total number of snoops made to the snoop filter.
system.tol3bus.snoop_filter.hit_single_snoops          290                       # Number of snoops hitting in the snoop filter with a single holder of the requested data.
system.tol3bus.snoop_filter.hit_multi_snoops            0                       # Number of snoops hitting in the snoop filter with multiple (>1) holders of the requested data.
system.tol3bus.pwrStateResidencyTicks::UNDEFINED 1112037318000                       # Cumulative time (in ticks) in various power states
system.tol3bus.trans_dist::ReadResp            455285                       # Transaction distribution
system.tol3bus.trans_dist::WritebackDirty       765252                       # Transaction distribution
system.tol3bus.trans_dist::CleanEvict           14882                       # Transaction distribution
system.tol3bus.trans_dist::ReadExReq            63436                       # Transaction distribution
system.tol3bus.trans_dist::ReadExResp           63436                       # Transaction distribution
system.tol3bus.trans_dist::ReadSharedReq       455285                       # Transaction distribution
system.tol3bus.pkt_count_system.l2.mem_side::system.l3.cpu_side      1553852                       # Packet count per connected master and slave (bytes)
system.tol3bus.pkt_size_system.l2.mem_side::system.l3.cpu_side     65730240                       # Cumulative packet size per connected master and slave (bytes)
system.tol3bus.snoops                          263724                       # Total snoops (count)
system.tol3bus.snoopTraffic                  16444032                       # Total snoop traffic (bytes)
system.tol3bus.snoop_fanout::samples           782445                       # Request fanout histogram
system.tol3bus.snoop_fanout::mean            0.000371                       # Request fanout histogram
system.tol3bus.snoop_fanout::stdev           0.019248                       # Request fanout histogram
system.tol3bus.snoop_fanout::underflows             0      0.00%      0.00% # Request fanout histogram
system.tol3bus.snoop_fanout::0                 782155     99.96%     99.96% # Request fanout histogram
system.tol3bus.snoop_fanout::1                    290      0.04%    100.00% # Request fanout histogram
system.tol3bus.snoop_fanout::overflows              0      0.00%    100.00% # Request fanout histogram
system.tol3bus.snoop_fanout::min_value              0                       # Request fanout histogram
system.tol3bus.snoop_fanout::max_value              1                       # Request fanout histogram
system.tol3bus.snoop_fanout::total             782445                       # Request fanout histogram
system.tol3bus.reqLayer0.occupancy         1025879500                       # Layer occupancy (ticks)
system.tol3bus.reqLayer0.utilization              0.1                       # Layer utilization (%)
system.tol3bus.respLayer0.occupancy         778081500                       # Layer occupancy (ticks)
system.tol3bus.respLayer0.utilization             0.1                       # Layer utilization (%)

---------- End Simulation Statistics   ----------
